/*---------------------------------------------------------------------------*\
| =========                 |                                                 |
| \\      /  F ield         | OpenFOAM: The Open Source CFD Toolbox           |
|  \\    /   O peration     | Version:  2312                                  |
|   \\  /    A nd           | Website:  www.openfoam.com                      |
|    \\/     M anipulation  |                                                 |
\*---------------------------------------------------------------------------*/
Build  : _9a9aeb73-20260127 OPENFOAM=2312 patch=260127 version=2312
Arch   : "LSB;label=32;scalar=64"
Exec   : /usr/lib/openfoam/openfoam2312/platforms/linux64GccDPInt32Opt/bin/simpleFoam -parallel
Date   : May 14 2026
Time   : 18:48:37
Host   : DESKTOP-4DCV8M4
PID    : 1908
I/O    : uncollated
Case   : /mnt/c/Users/admin/CfdOF/case
nProcs : 4
Hosts  :
(
    (DESKTOP-4DCV8M4 4)
)
Pstream initialized with:
    floatTransfer      : false
    nProcsSimpleSum    : 0
    nonBlockingExchange: 0 (tuning: 0)
    exchange algorithm : 0
    commsType          : nonBlocking
    polling iterations : 0
trapFpe: Floating point exception trapping enabled (FOAM_SIGFPE).
fileModificationChecking : Monitoring run-time modified files using timeStampMaster (fileModificationSkew 5, maxFileModificationPolls 20)
allowSystemOperations : Allowing user-supplied system call operations

// * * * * * * * * * * * * * * * * * * * * * * * * * * * * * * * * * * * * * //
Create time

Create mesh for time = 0


SIMPLE: convergence criteria
    field "(p|p_rgh)"	 tolerance 0.001
    field U	 tolerance 0.001
    field "(k|epsilon|omega|f|v2|nuTilda|gammaInt|ReThetat)"	 tolerance 0.001

Reading field p

Reading field U

Reading/calculating face flux field phi

Selecting incompressible transport model Newtonian
Selecting turbulence model type RAS
Selecting RAS turbulence model kEpsilon
RAS
{
    RASModel        kEpsilon;
    turbulence      on;
    printCoeffs     on;
    Cmu             0.09;
    C1              1.44;
    C2              1.92;
    C3              0;
    sigmak          1;
    sigmaEps        1.3;
}

No MRF models present

No finite volume options present

Starting time loop

Time = 1

smoothSolver:  Solving for Ux, Initial residual = 0.999999999999999, Final residual = 0.00588084377812249, No Iterations 2
smoothSolver:  Solving for Uy, Initial residual = 0.999999999999999, Final residual = 0.00632668488339555, No Iterations 2
smoothSolver:  Solving for Uz, Initial residual = 0.999999992786819, Final residual = 0.0683162082109122, No Iterations 1
GAMG:  Solving for p, Initial residual = 1, Final residual = 0.00695919810380798, No Iterations 14
GAMG:  Solving for p, Initial residual = 0.137365324991447, Final residual = 0.000559437098821145, No Iterations 2
GAMG:  Solving for p, Initial residual = 0.0263622357821412, Final residual = 0.000120115531166751, No Iterations 2
GAMG:  Solving for p, Initial residual = 0.00734357166854591, Final residual = 3.9199474692354e-05, No Iterations 2
GAMG:  Solving for p, Initial residual = 0.00235473816629519, Final residual = 1.79985060301963e-05, No Iterations 2
GAMG:  Solving for p, Initial residual = 0.000828090565804268, Final residual = 7.22867376554477e-06, No Iterations 2
time step continuity errors : sum local = 0.000959928177138538, global = -8.86871807395831e-05, cumulative = -8.86871807395831e-05
smoothSolver:  Solving for epsilon, Initial residual = 0.999071243276137, Final residual = 0.000677476393465931, No Iterations 1
smoothSolver:  Solving for k, Initial residual = 1, Final residual = 0.00454149007798323, No Iterations 1
ExecutionTime = 0.68 s  ClockTime = 1 s

Time = 2

smoothSolver:  Solving for Ux, Initial residual = 0.641672171992375, Final residual = 0.0120683987481567, No Iterations 1
smoothSolver:  Solving for Uy, Initial residual = 0.641273935335268, Final residual = 0.0122847328365142, No Iterations 1
smoothSolver:  Solving for Uz, Initial residual = 0.954133265703751, Final residual = 0.0283672655822311, No Iterations 1
GAMG:  Solving for p, Initial residual = 0.183729842457376, Final residual = 0.000828300819962099, No Iterations 4
GAMG:  Solving for p, Initial residual = 0.0549672583817858, Final residual = 0.00040158667532816, No Iterations 2
GAMG:  Solving for p, Initial residual = 0.0125749183065831, Final residual = 6.75320627616522e-05, No Iterations 3
GAMG:  Solving for p, Initial residual = 0.00430281269531931, Final residual = 1.70659778975703e-05, No Iterations 3
GAMG:  Solving for p, Initial residual = 0.00140821363798876, Final residual = 6.48258705054383e-06, No Iterations 3
GAMG:  Solving for p, Initial residual = 0.00052955980038841, Final residual = 2.21912304847294e-06, No Iterations 3
time step continuity errors : sum local = 0.000191656074142094, global = 7.25669132959399e-05, cumulative = -1.61202674436432e-05
smoothSolver:  Solving for epsilon, Initial residual = 0.99905729491947, Final residual = 0.000922854008421306, No Iterations 1
smoothSolver:  Solving for k, Initial residual = 0.846167635466569, Final residual = 0.00549751566969223, No Iterations 1
ExecutionTime = 1.01 s  ClockTime = 1 s

Time = 3

smoothSolver:  Solving for Ux, Initial residual = 0.205169990932291, Final residual = 0.00395652854556813, No Iterations 1
smoothSolver:  Solving for Uy, Initial residual = 0.204994782684961, Final residual = 0.00396298203231244, No Iterations 1
smoothSolver:  Solving for Uz, Initial residual = 0.429735150168662, Final residual = 0.0122652998202597, No Iterations 1
GAMG:  Solving for p, Initial residual = 0.280314992198606, Final residual = 0.00155881536896758, No Iterations 5
GAMG:  Solving for p, Initial residual = 0.252493044517389, Final residual = 0.000894607780895104, No Iterations 3
GAMG:  Solving for p, Initial residual = 0.0547254522500688, Final residual = 0.000263801923535639, No Iterations 3
GAMG:  Solving for p, Initial residual = 0.0174012215076232, Final residual = 0.000107539922910628, No Iterations 2
GAMG:  Solving for p, Initial residual = 0.00487529691357956, Final residual = 2.95009484079242e-05, No Iterations 3
GAMG:  Solving for p, Initial residual = 0.00182558459793581, Final residual = 7.02967375252973e-06, No Iterations 3
time step continuity errors : sum local = 0.000246697495809937, global = 2.4771756285576e-05, cumulative = 8.65148884193272e-06
smoothSolver:  Solving for epsilon, Initial residual = 0.999180713693423, Final residual = 0.000946612242701721, No Iterations 1
smoothSolver:  Solving for k, Initial residual = 0.651580080204773, Final residual = 0.00471093588130659, No Iterations 1
ExecutionTime = 1.36 s  ClockTime = 1 s

Time = 4

smoothSolver:  Solving for Ux, Initial residual = 0.148451599930868, Final residual = 0.00286752270961824, No Iterations 1
smoothSolver:  Solving for Uy, Initial residual = 0.148342294099405, Final residual = 0.00286941711003887, No Iterations 1
smoothSolver:  Solving for Uz, Initial residual = 0.352734605867451, Final residual = 0.00986564980256555, No Iterations 1
GAMG:  Solving for p, Initial residual = 0.282329684327056, Final residual = 0.00186748118520397, No Iterations 5
GAMG:  Solving for p, Initial residual = 0.166754523197234, Final residual = 0.000946128904443113, No Iterations 2
GAMG:  Solving for p, Initial residual = 0.0362028045628953, Final residual = 0.000224998920999814, No Iterations 3
GAMG:  Solving for p, Initial residual = 0.0124771194464772, Final residual = 5.08320477125357e-05, No Iterations 3
GAMG:  Solving for p, Initial residual = 0.00395782507664663, Final residual = 1.78384432155856e-05, No Iterations 3
GAMG:  Solving for p, Initial residual = 0.00151424355527499, Final residual = 9.07660654412439e-06, No Iterations 2
time step continuity errors : sum local = 0.000930963437542422, global = 0.000189472808669804, cumulative = 0.000198124297511737
smoothSolver:  Solving for epsilon, Initial residual = 0.999233704870875, Final residual = 0.00124396309886343, No Iterations 1
smoothSolver:  Solving for k, Initial residual = 0.460206306477197, Final residual = 0.00461623361187568, No Iterations 1
ExecutionTime = 1.69 s  ClockTime = 2 s

Time = 5

smoothSolver:  Solving for Ux, Initial residual = 0.125190278489964, Final residual = 0.00241691193490445, No Iterations 1
smoothSolver:  Solving for Uy, Initial residual = 0.125305236435186, Final residual = 0.00241264911184823, No Iterations 1
smoothSolver:  Solving for Uz, Initial residual = 0.226374971832123, Final residual = 0.00595547631786723, No Iterations 1
GAMG:  Solving for p, Initial residual = 0.409532841252563, Final residual = 0.00239501641764623, No Iterations 5
GAMG:  Solving for p, Initial residual = 0.143608094565344, Final residual = 0.000606538959277452, No Iterations 2
GAMG:  Solving for p, Initial residual = 0.0308290883113674, Final residual = 0.000145668591017644, No Iterations 3
GAMG:  Solving for p, Initial residual = 0.0102186814363095, Final residual = 4.04239266297437e-05, No Iterations 3
GAMG:  Solving for p, Initial residual = 0.00327586343823084, Final residual = 1.51646542096835e-05, No Iterations 3
GAMG:  Solving for p, Initial residual = 0.00125475661969688, Final residual = 9.55054465468046e-06, No Iterations 2
time step continuity errors : sum local = 0.00136954795589965, global = 0.000408944812072897, cumulative = 0.000607069109584635
smoothSolver:  Solving for epsilon, Initial residual = 0.997923304834933, Final residual = 0.00177207868199778, No Iterations 1
smoothSolver:  Solving for k, Initial residual = 0.293261210601702, Final residual = 0.00484635168653522, No Iterations 1
ExecutionTime = 2.02 s  ClockTime = 2 s

Time = 6

smoothSolver:  Solving for Ux, Initial residual = 0.145545649920699, Final residual = 0.00284105276733807, No Iterations 1
smoothSolver:  Solving for Uy, Initial residual = 0.145640098136963, Final residual = 0.00284677291860416, No Iterations 1
smoothSolver:  Solving for Uz, Initial residual = 0.137265463362538, Final residual = 0.00304875573934987, No Iterations 1
GAMG:  Solving for p, Initial residual = 0.605103631066683, Final residual = 0.00298530038053512, No Iterations 6
GAMG:  Solving for p, Initial residual = 0.15018517673517, Final residual = 0.000591566996947223, No Iterations 2
GAMG:  Solving for p, Initial residual = 0.0318183802902558, Final residual = 0.000125163770659184, No Iterations 3
GAMG:  Solving for p, Initial residual = 0.0101005818660542, Final residual = 8.32110439561541e-05, No Iterations 2
GAMG:  Solving for p, Initial residual = 0.00327703982983877, Final residual = 1.7347774996872e-05, No Iterations 3
GAMG:  Solving for p, Initial residual = 0.00123575654525477, Final residual = 1.0787511366244e-05, No Iterations 2
time step continuity errors : sum local = 0.00146623245935535, global = 0.000435602679211101, cumulative = 0.00104267178879574
smoothSolver:  Solving for epsilon, Initial residual = 0.989813961690748, Final residual = 0.00203361856489278, No Iterations 1
smoothSolver:  Solving for k, Initial residual = 0.170872782030325, Final residual = 0.00394545370034242, No Iterations 1
ExecutionTime = 2.34 s  ClockTime = 2 s

Time = 7

smoothSolver:  Solving for Ux, Initial residual = 0.182210306312155, Final residual = 0.00360943287626732, No Iterations 1
smoothSolver:  Solving for Uy, Initial residual = 0.182600835968253, Final residual = 0.00362853016397508, No Iterations 1
smoothSolver:  Solving for Uz, Initial residual = 0.133353829070474, Final residual = 0.00294897289938832, No Iterations 1
GAMG:  Solving for p, Initial residual = 0.531859854447768, Final residual = 0.0031610225654312, No Iterations 6
GAMG:  Solving for p, Initial residual = 0.132318782910422, Final residual = 0.000560477608498567, No Iterations 2
GAMG:  Solving for p, Initial residual = 0.0272593256669736, Final residual = 0.000140111764961608, No Iterations 3
GAMG:  Solving for p, Initial residual = 0.00899623492720844, Final residual = 8.46677173653731e-05, No Iterations 2
GAMG:  Solving for p, Initial residual = 0.00291493369931998, Final residual = 1.41672210245348e-05, No Iterations 3
GAMG:  Solving for p, Initial residual = 0.00112454324860976, Final residual = 1.02735650132439e-05, No Iterations 2
time step continuity errors : sum local = 0.00131358644518324, global = 0.000429022162584241, cumulative = 0.00147169395137998
smoothSolver:  Solving for epsilon, Initial residual = 0.935867827574514, Final residual = 0.00203653549563292, No Iterations 1
smoothSolver:  Solving for k, Initial residual = 0.0942103076396832, Final residual = 0.00357010890975609, No Iterations 1
ExecutionTime = 2.69 s  ClockTime = 3 s

Time = 8

smoothSolver:  Solving for Ux, Initial residual = 0.214644575030307, Final residual = 0.00437311655067642, No Iterations 1
smoothSolver:  Solving for Uy, Initial residual = 0.21518135593204, Final residual = 0.00440746433741274, No Iterations 1
smoothSolver:  Solving for Uz, Initial residual = 0.190649602921719, Final residual = 0.00512215182426985, No Iterations 1
GAMG:  Solving for p, Initial residual = 0.369842282073721, Final residual = 0.0020158076503409, No Iterations 6
GAMG:  Solving for p, Initial residual = 0.111547295474771, Final residual = 0.000678744705714137, No Iterations 2
GAMG:  Solving for p, Initial residual = 0.0229290599629868, Final residual = 0.000164596977264907, No Iterations 3
GAMG:  Solving for p, Initial residual = 0.00807795664707361, Final residual = 5.38828573637928e-05, No Iterations 3
GAMG:  Solving for p, Initial residual = 0.00267256115920538, Final residual = 2.059641529546e-05, No Iterations 3
GAMG:  Solving for p, Initial residual = 0.000999339163867162, Final residual = 9.21228137110453e-06, No Iterations 3
time step continuity errors : sum local = 0.000925039736807545, global = 0.000338897824040766, cumulative = 0.00181059177542074
smoothSolver:  Solving for epsilon, Initial residual = 0.618517994670498, Final residual = 0.00128428782549119, No Iterations 1
smoothSolver:  Solving for k, Initial residual = 0.0482580536859785, Final residual = 0.00231883792521863, No Iterations 1
ExecutionTime = 3.04 s  ClockTime = 3 s

Time = 9

smoothSolver:  Solving for Ux, Initial residual = 0.220428013065561, Final residual = 0.0045460188957194, No Iterations 1
smoothSolver:  Solving for Uy, Initial residual = 0.221132856167136, Final residual = 0.00460049116736333, No Iterations 1
smoothSolver:  Solving for Uz, Initial residual = 0.248449855639058, Final residual = 0.00702886008170022, No Iterations 1
GAMG:  Solving for p, Initial residual = 0.325729627768526, Final residual = 0.00272739158816247, No Iterations 3
GAMG:  Solving for p, Initial residual = 0.0736834177250563, Final residual = 0.000366273161099584, No Iterations 3
GAMG:  Solving for p, Initial residual = 0.0178052339540926, Final residual = 0.000107979204722963, No Iterations 3
GAMG:  Solving for p, Initial residual = 0.00613152911872989, Final residual = 5.91615574222957e-05, No Iterations 2
GAMG:  Solving for p, Initial residual = 0.00193173827631237, Final residual = 1.62118651278336e-05, No Iterations 3
GAMG:  Solving for p, Initial residual = 0.000757854538838557, Final residual = 5.79954367185859e-06, No Iterations 3
time step continuity errors : sum local = 0.000393111450547185, global = 0.000112899214153919, cumulative = 0.00192349098957466
smoothSolver:  Solving for epsilon, Initial residual = 0.301385226095831, Final residual = 0.000625851808834995, No Iterations 1
smoothSolver:  Solving for k, Initial residual = 0.0313493146035553, Final residual = 0.000767246699862472, No Iterations 2
ExecutionTime = 3.39 s  ClockTime = 4 s

Time = 10

smoothSolver:  Solving for Ux, Initial residual = 0.179732704154074, Final residual = 0.00375224745333936, No Iterations 1
smoothSolver:  Solving for Uy, Initial residual = 0.180430208216643, Final residual = 0.00379146881678261, No Iterations 1
smoothSolver:  Solving for Uz, Initial residual = 0.240208238312522, Final residual = 0.00684692903798561, No Iterations 1
GAMG:  Solving for p, Initial residual = 0.36635119661722, Final residual = 0.0030507140498487, No Iterations 3
GAMG:  Solving for p, Initial residual = 0.137742916692564, Final residual = 0.00094612887315207, No Iterations 3
GAMG:  Solving for p, Initial residual = 0.0501532185865341, Final residual = 0.000488348620690772, No Iterations 2
GAMG:  Solving for p, Initial residual = 0.0124839495794735, Final residual = 7.0056761139316e-05, No Iterations 3
GAMG:  Solving for p, Initial residual = 0.00434484931222061, Final residual = 2.10663297640223e-05, No Iterations 3
GAMG:  Solving for p, Initial residual = 0.0015647480980368, Final residual = 1.32484774782569e-05, No Iterations 2
time step continuity errors : sum local = 0.000426299867551986, global = 9.82641569166716e-05, cumulative = 0.00202175514649133
smoothSolver:  Solving for epsilon, Initial residual = 0.133919833039655, Final residual = 0.000333446096390002, No Iterations 1
smoothSolver:  Solving for k, Initial residual = 0.0145141061134765, Final residual = 0.00135788694942691, No Iterations 1
ExecutionTime = 3.71 s  ClockTime = 4 s

Time = 11

smoothSolver:  Solving for Ux, Initial residual = 0.133255253800136, Final residual = 0.00282602649462404, No Iterations 1
smoothSolver:  Solving for Uy, Initial residual = 0.133639420052022, Final residual = 0.00283965609495205, No Iterations 1
smoothSolver:  Solving for Uz, Initial residual = 0.211615006355175, Final residual = 0.00601280221131275, No Iterations 1
GAMG:  Solving for p, Initial residual = 0.435558966143169, Final residual = 0.0038451479065051, No Iterations 4
GAMG:  Solving for p, Initial residual = 0.177234688017436, Final residual = 0.0013322594906709, No Iterations 2
GAMG:  Solving for p, Initial residual = 0.0420151588886516, Final residual = 0.000272744234886139, No Iterations 3
GAMG:  Solving for p, Initial residual = 0.015646995663037, Final residual = 0.000126080025310148, No Iterations 2
GAMG:  Solving for p, Initial residual = 0.00490822635381113, Final residual = 2.22366110624596e-05, No Iterations 3
GAMG:  Solving for p, Initial residual = 0.00203095945702798, Final residual = 8.59388005456237e-06, No Iterations 2
time step continuity errors : sum local = 0.000516527186515768, global = -4.14523701174737e-06, cumulative = 0.00201760990947959
smoothSolver:  Solving for epsilon, Initial residual = 0.181004660795372, Final residual = 0.000133072850065326, No Iterations 1
smoothSolver:  Solving for k, Initial residual = 0.0121160091642432, Final residual = 0.00041203470238604, No Iterations 2
ExecutionTime = 4.03 s  ClockTime = 4 s

Time = 12

smoothSolver:  Solving for Ux, Initial residual = 0.1053756778467, Final residual = 0.00221709692880147, No Iterations 1
smoothSolver:  Solving for Uy, Initial residual = 0.105610056990526, Final residual = 0.00222336684501042, No Iterations 1
smoothSolver:  Solving for Uz, Initial residual = 0.162862803786447, Final residual = 0.00452175233226415, No Iterations 1
GAMG:  Solving for p, Initial residual = 0.49331135302323, Final residual = 0.00300307229413927, No Iterations 4
GAMG:  Solving for p, Initial residual = 0.157760760617206, Final residual = 0.000632077877377017, No Iterations 2
GAMG:  Solving for p, Initial residual = 0.0358935149035945, Final residual = 0.000304485334652729, No Iterations 2
GAMG:  Solving for p, Initial residual = 0.0112831938650162, Final residual = 9.49478727523664e-05, No Iterations 2
GAMG:  Solving for p, Initial residual = 0.0038324031360841, Final residual = 1.69939625878234e-05, No Iterations 3
GAMG:  Solving for p, Initial residual = 0.00155749302336315, Final residual = 8.00894137827611e-06, No Iterations 2
time step continuity errors : sum local = 0.000680649753023356, global = 9.94547088900099e-05, cumulative = 0.0021170646183696
smoothSolver:  Solving for epsilon, Initial residual = 0.345809537731189, Final residual = 7.51289517308352e-05, No Iterations 1
smoothSolver:  Solving for k, Initial residual = 0.00750734949074503, Final residual = 0.000271676213485737, No Iterations 2
ExecutionTime = 4.36 s  ClockTime = 5 s

Time = 13

smoothSolver:  Solving for Ux, Initial residual = 0.103937034251634, Final residual = 0.00216553071405145, No Iterations 1
smoothSolver:  Solving for Uy, Initial residual = 0.104074664125275, Final residual = 0.00217359102034805, No Iterations 1
smoothSolver:  Solving for Uz, Initial residual = 0.112448751229655, Final residual = 0.00285815011837554, No Iterations 1
GAMG:  Solving for p, Initial residual = 0.565872674107002, Final residual = 0.00357864917316594, No Iterations 4
GAMG:  Solving for p, Initial residual = 0.147916022427654, Final residual = 0.000858690850209027, No Iterations 2
GAMG:  Solving for p, Initial residual = 0.0323338929536781, Final residual = 0.000200682702907372, No Iterations 3
GAMG:  Solving for p, Initial residual = 0.0112841133424862, Final residual = 4.25730405612602e-05, No Iterations 3
GAMG:  Solving for p, Initial residual = 0.00377828591742139, Final residual = 3.71859284713987e-05, No Iterations 2
GAMG:  Solving for p, Initial residual = 0.0013041743133295, Final residual = 5.78237190031878e-06, No Iterations 3
time step continuity errors : sum local = 0.000551380754528124, global = 0.000225418757608252, cumulative = 0.00234248337597785
smoothSolver:  Solving for epsilon, Initial residual = 0.524017054782428, Final residual = 1.01820058594517e-05, No Iterations 1
smoothSolver:  Solving for k, Initial residual = 0.00833510187590911, Final residual = 0.000614332682195241, No Iterations 1
ExecutionTime = 4.67 s  ClockTime = 5 s

Time = 14

smoothSolver:  Solving for Ux, Initial residual = 0.120085813010443, Final residual = 0.00251766148421951, No Iterations 1
smoothSolver:  Solving for Uy, Initial residual = 0.119794498382994, Final residual = 0.00252331688665268, No Iterations 1
smoothSolver:  Solving for Uz, Initial residual = 0.0835615841471041, Final residual = 0.00182024181243086, No Iterations 1
GAMG:  Solving for p, Initial residual = 0.66416097158215, Final residual = 0.00531584301086203, No Iterations 4
GAMG:  Solving for p, Initial residual = 0.138664491215116, Final residual = 0.00122050079801366, No Iterations 2
GAMG:  Solving for p, Initial residual = 0.0295523694141375, Final residual = 0.000238555629307274, No Iterations 3
GAMG:  Solving for p, Initial residual = 0.0107792094758355, Final residual = 7.6597595777598e-05, No Iterations 3
GAMG:  Solving for p, Initial residual = 0.0036016591139475, Final residual = 2.714725547336e-05, No Iterations 3
GAMG:  Solving for p, Initial residual = 0.0013508050987934, Final residual = 1.15399952573901e-05, No Iterations 3
time step continuity errors : sum local = 0.00105521450848606, global = -0.000355607699989011, cumulative = 0.00198687567598884
smoothSolver:  Solving for epsilon, Initial residual = 0.536689757777091, Final residual = 1.55246046997557e-06, No Iterations 1
smoothSolver:  Solving for k, Initial residual = 0.00600179290785829, Final residual = 0.000575003354917912, No Iterations 1
ExecutionTime = 5.02 s  ClockTime = 5 s

Time = 15

smoothSolver:  Solving for Ux, Initial residual = 0.141604496231148, Final residual = 0.003012028808742, No Iterations 1
smoothSolver:  Solving for Uy, Initial residual = 0.141502183893619, Final residual = 0.00301892457930462, No Iterations 1
smoothSolver:  Solving for Uz, Initial residual = 0.0997643910188161, Final residual = 0.00243512165429128, No Iterations 1
GAMG:  Solving for p, Initial residual = 0.53325795956099, Final residual = 0.00442398748883357, No Iterations 4
GAMG:  Solving for p, Initial residual = 0.12235886556958, Final residual = 0.000487531642320154, No Iterations 3
GAMG:  Solving for p, Initial residual = 0.0258769763438755, Final residual = 0.000172401720799825, No Iterations 3
GAMG:  Solving for p, Initial residual = 0.00991704357909545, Final residual = 3.96655742920725e-05, No Iterations 3
GAMG:  Solving for p, Initial residual = 0.00301639270236715, Final residual = 1.28699610391013e-05, No Iterations 3
GAMG:  Solving for p, Initial residual = 0.00119089627810587, Final residual = 6.78896490673433e-06, No Iterations 2
time step continuity errors : sum local = 0.000537990654862971, global = -9.00093021362662e-05, cumulative = 0.00189686637385257
smoothSolver:  Solving for epsilon, Initial residual = 0.538604814375813, Final residual = 1.0545812960298e-06, No Iterations 1
smoothSolver:  Solving for k, Initial residual = 0.00359336281799688, Final residual = 0.000315869097557193, No Iterations 1
ExecutionTime = 5.35 s  ClockTime = 6 s

Time = 16

smoothSolver:  Solving for Ux, Initial residual = 0.155750706996303, Final residual = 0.00336042992809709, No Iterations 1
smoothSolver:  Solving for Uy, Initial residual = 0.156079040222052, Final residual = 0.00337439272745834, No Iterations 1
smoothSolver:  Solving for Uz, Initial residual = 0.139145415981328, Final residual = 0.00382459478998678, No Iterations 1
GAMG:  Solving for p, Initial residual = 0.439190121723766, Final residual = 0.00215199219771789, No Iterations 4
GAMG:  Solving for p, Initial residual = 0.0975062827637779, Final residual = 0.000389038989544174, No Iterations 3
GAMG:  Solving for p, Initial residual = 0.0215361763123888, Final residual = 0.000133251041769234, No Iterations 3
GAMG:  Solving for p, Initial residual = 0.00798709193857749, Final residual = 6.22906026308939e-05, No Iterations 2
GAMG:  Solving for p, Initial residual = 0.00239626734494532, Final residual = 1.14637316448919e-05, No Iterations 3
GAMG:  Solving for p, Initial residual = 0.000869252624806159, Final residual = 8.58372276884204e-06, No Iterations 2
time step continuity errors : sum local = 0.000519938873346456, global = -3.65530418838059e-05, cumulative = 0.00186031333196877
smoothSolver:  Solving for epsilon, Initial residual = 0.53974275802318, Final residual = 4.71294674784779e-07, No Iterations 1
smoothSolver:  Solving for k, Initial residual = 0.00251720297194927, Final residual = 8.97875781345797e-05, No Iterations 2
ExecutionTime = 5.69 s  ClockTime = 6 s

Time = 17

smoothSolver:  Solving for Ux, Initial residual = 0.151527217804748, Final residual = 0.00330405883859033, No Iterations 1
smoothSolver:  Solving for Uy, Initial residual = 0.152716224474156, Final residual = 0.00332950218317336, No Iterations 1
smoothSolver:  Solving for Uz, Initial residual = 0.168200978542852, Final residual = 0.0048020737482101, No Iterations 1
GAMG:  Solving for p, Initial residual = 0.419852673381473, Final residual = 0.00130570521200401, No Iterations 3
GAMG:  Solving for p, Initial residual = 0.0892358915865661, Final residual = 0.000722756714975698, No Iterations 2
GAMG:  Solving for p, Initial residual = 0.0199803074965926, Final residual = 0.000112516321172704, No Iterations 3
GAMG:  Solving for p, Initial residual = 0.00647365527362535, Final residual = 2.6775384725758e-05, No Iterations 3
GAMG:  Solving for p, Initial residual = 0.0020919160537647, Final residual = 9.86903094586626e-06, No Iterations 3
GAMG:  Solving for p, Initial residual = 0.000771889138996921, Final residual = 7.34802054993333e-06, No Iterations 2
time step continuity errors : sum local = 0.000297449567841683, global = -7.30069999313651e-05, cumulative = 0.0017873063320374
smoothSolver:  Solving for epsilon, Initial residual = 0.54031017232036, Final residual = 2.64624941756648e-07, No Iterations 1
smoothSolver:  Solving for k, Initial residual = 0.0021720282578533, Final residual = 0.000136678762187225, No Iterations 2
ExecutionTime = 6.02 s  ClockTime = 6 s

Time = 18

smoothSolver:  Solving for Ux, Initial residual = 0.131147822269398, Final residual = 0.00288704013692879, No Iterations 1
smoothSolver:  Solving for Uy, Initial residual = 0.132718227789343, Final residual = 0.00292577064966162, No Iterations 1
smoothSolver:  Solving for Uz, Initial residual = 0.172454175920938, Final residual = 0.00498301579989567, No Iterations 1
GAMG:  Solving for p, Initial residual = 0.434776897429457, Final residual = 0.0036956860423313, No Iterations 3
GAMG:  Solving for p, Initial residual = 0.171309250700191, Final residual = 0.00109956928971495, No Iterations 3
GAMG:  Solving for p, Initial residual = 0.0477944701156425, Final residual = 0.000452636060199788, No Iterations 2
GAMG:  Solving for p, Initial residual = 0.0123058816861354, Final residual = 8.66433276518413e-05, No Iterations 3
GAMG:  Solving for p, Initial residual = 0.00479570577109715, Final residual = 2.10957093647043e-05, No Iterations 3
GAMG:  Solving for p, Initial residual = 0.00170743822025113, Final residual = 1.4350689073608e-05, No Iterations 2
time step continuity errors : sum local = 0.000422705978941899, global = 8.1284584788045e-05, cumulative = 0.00186859091682545
smoothSolver:  Solving for epsilon, Initial residual = 0.542554186674203, Final residual = 7.62928419158557e-07, No Iterations 1
smoothSolver:  Solving for k, Initial residual = 0.00208101308735533, Final residual = 0.000143588471733378, No Iterations 2
ExecutionTime = 6.34 s  ClockTime = 7 s

Time = 19

smoothSolver:  Solving for Ux, Initial residual = 0.107961229884234, Final residual = 0.0023850657751089, No Iterations 1
smoothSolver:  Solving for Uy, Initial residual = 0.109323421915767, Final residual = 0.00241231695186173, No Iterations 1
smoothSolver:  Solving for Uz, Initial residual = 0.153720889433975, Final residual = 0.00443986587628041, No Iterations 1
GAMG:  Solving for p, Initial residual = 0.462372554028564, Final residual = 0.00375370134664624, No Iterations 4
GAMG:  Solving for p, Initial residual = 0.155715906722725, Final residual = 0.00116148632345295, No Iterations 2
GAMG:  Solving for p, Initial residual = 0.0375117460927582, Final residual = 0.000239797651898404, No Iterations 3
GAMG:  Solving for p, Initial residual = 0.0140161993751808, Final residual = 9.57363804141113e-05, No Iterations 2
GAMG:  Solving for p, Initial residual = 0.00438956329813581, Final residual = 1.9537757216574e-05, No Iterations 3
GAMG:  Solving for p, Initial residual = 0.00180031488889284, Final residual = 8.72287217820737e-06, No Iterations 2
time step continuity errors : sum local = 0.000425489788898212, global = -3.74502177579416e-05, cumulative = 0.0018311406990675
smoothSolver:  Solving for epsilon, Initial residual = 0.5448988760547, Final residual = 2.75727941042508e-06, No Iterations 1
smoothSolver:  Solving for k, Initial residual = 0.00108270100437509, Final residual = 5.12515246748435e-05, No Iterations 3
ExecutionTime = 6.67 s  ClockTime = 7 s

Time = 20

smoothSolver:  Solving for Ux, Initial residual = 0.100797946299074, Final residual = 0.0021404164243646, No Iterations 1
smoothSolver:  Solving for Uy, Initial residual = 0.0987190228669928, Final residual = 0.0021484976213702, No Iterations 1
smoothSolver:  Solving for Uz, Initial residual = 0.123308091798581, Final residual = 0.00342438166644592, No Iterations 1
GAMG:  Solving for p, Initial residual = 0.503590860087253, Final residual = 0.00332790156203392, No Iterations 4
GAMG:  Solving for p, Initial residual = 0.140771408618629, Final residual = 0.000667077665959565, No Iterations 2
GAMG:  Solving for p, Initial residual = 0.0321811954099303, Final residual = 0.000160537159900237, No Iterations 3
GAMG:  Solving for p, Initial residual = 0.0113430483558864, Final residual = 6.5933425365997e-05, No Iterations 2
GAMG:  Solving for p, Initial residual = 0.0036177020645103, Final residual = 1.75146897136153e-05, No Iterations 3
GAMG:  Solving for p, Initial residual = 0.00137854010215578, Final residual = 1.19477055559169e-05, No Iterations 2
time step continuity errors : sum local = 0.000763374587490806, global = 0.000192928592296519, cumulative = 0.00202406929136402
smoothSolver:  Solving for epsilon, Initial residual = 0.545721667309197, Final residual = 2.26354914137254e-06, No Iterations 1
smoothSolver:  Solving for k, Initial residual = 0.000561015128338332, Final residual = 4.48653246368189e-05, No Iterations 3
ExecutionTime = 7.01 s  ClockTime = 7 s

Time = 21

smoothSolver:  Solving for Ux, Initial residual = 0.139043323769933, Final residual = 0.002707019681382, No Iterations 1
smoothSolver:  Solving for Uy, Initial residual = 0.142755872521129, Final residual = 0.00304742260373401, No Iterations 1
smoothSolver:  Solving for Uz, Initial residual = 0.107254754227623, Final residual = 0.00218071942060924, No Iterations 1
GAMG:  Solving for p, Initial residual = 0.564905509187656, Final residual = 0.00344739062427502, No Iterations 4
GAMG:  Solving for p, Initial residual = 0.127034771954283, Final residual = 0.000489337350268434, No Iterations 2
GAMG:  Solving for p, Initial residual = 0.0283338299200453, Final residual = 0.000230411664751862, No Iterations 2
GAMG:  Solving for p, Initial residual = 0.00889701706157327, Final residual = 6.81393114514599e-05, No Iterations 2
GAMG:  Solving for p, Initial residual = 0.00299235920739465, Final residual = 1.35634021199782e-05, No Iterations 3
GAMG:  Solving for p, Initial residual = 0.00116874863926087, Final residual = 7.2757196439261e-06, No Iterations 2
time step continuity errors : sum local = 0.000522247852825586, global = 0.000150213008420357, cumulative = 0.00217428229978438
smoothSolver:  Solving for epsilon, Initial residual = 0.546937669725402, Final residual = 2.27817057473722e-07, No Iterations 1
smoothSolver:  Solving for k, Initial residual = 0.0433631952655436, Final residual = 0.00283364392966625, No Iterations 3
ExecutionTime = 7.31 s  ClockTime = 8 s

Time = 22

smoothSolver:  Solving for Ux, Initial residual = 0.159844925539832, Final residual = 0.00304987779954938, No Iterations 1
smoothSolver:  Solving for Uy, Initial residual = 0.162125384264613, Final residual = 0.00290121594363465, No Iterations 1
smoothSolver:  Solving for Uz, Initial residual = 0.122157086602864, Final residual = 0.00262368910167585, No Iterations 1
GAMG:  Solving for p, Initial residual = 0.682757594954874, Final residual = 0.00304371166395351, No Iterations 5
GAMG:  Solving for p, Initial residual = 0.111874120247238, Final residual = 0.000528472918130217, No Iterations 2
GAMG:  Solving for p, Initial residual = 0.0244817681067546, Final residual = 0.000142415883681713, No Iterations 3
GAMG:  Solving for p, Initial residual = 0.00860499042461939, Final residual = 8.32709305670408e-05, No Iterations 2
GAMG:  Solving for p, Initial residual = 0.00281440997733789, Final residual = 1.51828835269095e-05, No Iterations 3
GAMG:  Solving for p, Initial residual = 0.00116395305008363, Final residual = 6.97815415745936e-06, No Iterations 2
time step continuity errors : sum local = 0.00051969932626201, global = 0.000123992942954858, cumulative = 0.00229827524273924
smoothSolver:  Solving for epsilon, Initial residual = 0.540502643646276, Final residual = 3.88441125606545e-07, No Iterations 1
smoothSolver:  Solving for k, Initial residual = 0.345785407635106, Final residual = 0.023226326925955, No Iterations 3
ExecutionTime = 7.66 s  ClockTime = 8 s

Time = 23

smoothSolver:  Solving for Ux, Initial residual = 0.157443563586021, Final residual = 0.00293791819117355, No Iterations 1
smoothSolver:  Solving for Uy, Initial residual = 0.152128376418127, Final residual = 0.00281405819271554, No Iterations 1
smoothSolver:  Solving for Uz, Initial residual = 0.102242087166603, Final residual = 0.00192240580990111, No Iterations 1
GAMG:  Solving for p, Initial residual = 0.540293357741928, Final residual = 0.00297566258502343, No Iterations 5
GAMG:  Solving for p, Initial residual = 0.0825765927244341, Final residual = 0.000532435413877191, No Iterations 2
GAMG:  Solving for p, Initial residual = 0.0186528957794362, Final residual = 0.000138575748292617, No Iterations 3
GAMG:  Solving for p, Initial residual = 0.00730680681575162, Final residual = 5.48610686138053e-05, No Iterations 2
GAMG:  Solving for p, Initial residual = 0.0023554934699606, Final residual = 1.33133520920498e-05, No Iterations 3
GAMG:  Solving for p, Initial residual = 0.00100766918207796, Final residual = 5.52270170972547e-06, No Iterations 2
time step continuity errors : sum local = 0.000465412734668763, global = 6.99183888717337e-05, cumulative = 0.00236819363161097
smoothSolver:  Solving for epsilon, Initial residual = 0.538043087430467, Final residual = 4.56097221650874e-07, No Iterations 1
smoothSolver:  Solving for k, Initial residual = 0.268992532019166, Final residual = 0.0166913264689313, No Iterations 3
ExecutionTime = 7.99 s  ClockTime = 8 s

Time = 24

smoothSolver:  Solving for Ux, Initial residual = 0.141652972794934, Final residual = 0.00255195778423542, No Iterations 1
smoothSolver:  Solving for Uy, Initial residual = 0.141311049520516, Final residual = 0.00255766084920802, No Iterations 1
smoothSolver:  Solving for Uz, Initial residual = 0.0909043095201913, Final residual = 0.00166710100620115, No Iterations 1
GAMG:  Solving for p, Initial residual = 0.402320133888598, Final residual = 0.00265816961583609, No Iterations 5
GAMG:  Solving for p, Initial residual = 0.107514036963335, Final residual = 0.000757129090914438, No Iterations 2
GAMG:  Solving for p, Initial residual = 0.0221713433690123, Final residual = 0.000132618549749813, No Iterations 4
GAMG:  Solving for p, Initial residual = 0.0084227770909841, Final residual = 6.06096960738558e-05, No Iterations 2
GAMG:  Solving for p, Initial residual = 0.00275806135057979, Final residual = 2.75033274091198e-05, No Iterations 6
GAMG:  Solving for p, Initial residual = 0.00132908876364853, Final residual = 7.60150612793014e-06, No Iterations 2
time step continuity errors : sum local = 0.000455494635658632, global = 4.5057573812242e-05, cumulative = 0.00241325120542321
smoothSolver:  Solving for epsilon, Initial residual = 0.540986152698531, Final residual = 2.2871317805701e-07, No Iterations 1
smoothSolver:  Solving for k, Initial residual = 0.373946793062981, Final residual = 0.030691426739731, No Iterations 3
ExecutionTime = 8.35 s  ClockTime = 9 s

Time = 25

smoothSolver:  Solving for Ux, Initial residual = 0.127882775654649, Final residual = 0.00224696086036144, No Iterations 1
smoothSolver:  Solving for Uy, Initial residual = 0.131882996367707, Final residual = 0.00230866470619452, No Iterations 1
smoothSolver:  Solving for Uz, Initial residual = 0.0852255265032222, Final residual = 0.00156820790967778, No Iterations 1
GAMG:  Solving for p, Initial residual = 0.350028848267789, Final residual = 0.00272593743698996, No Iterations 6
GAMG:  Solving for p, Initial residual = 0.060444819387554, Final residual = 0.000406123748856739, No Iterations 4
GAMG:  Solving for p, Initial residual = 0.0103610881438551, Final residual = 8.73922660496283e-05, No Iterations 4
GAMG:  Solving for p, Initial residual = 0.00405204159073466, Final residual = 3.29509492016185e-05, No Iterations 4
GAMG:  Solving for p, Initial residual = 0.00146050590168222, Final residual = 1.34017844385907e-05, No Iterations 6
GAMG:  Solving for p, Initial residual = 0.000657151990480579, Final residual = 5.86266766144959e-06, No Iterations 7
time step continuity errors : sum local = 0.000634847810661996, global = -6.73086636513777e-06, cumulative = 0.00240652033905808
smoothSolver:  Solving for epsilon, Initial residual = 0.52951250597939, Final residual = 6.27177522689134e-07, No Iterations 1
smoothSolver:  Solving for k, Initial residual = 0.395549713124088, Final residual = 0.0395468571561508, No Iterations 3
ExecutionTime = 8.8 s  ClockTime = 9 s

Time = 26

smoothSolver:  Solving for Ux, Initial residual = 0.118890041812384, Final residual = 0.00208901156951984, No Iterations 1
smoothSolver:  Solving for Uy, Initial residual = 0.120734447118065, Final residual = 0.00210927174355686, No Iterations 1
smoothSolver:  Solving for Uz, Initial residual = 0.0778208116229334, Final residual = 0.00144070356852348, No Iterations 1
GAMG:  Solving for p, Initial residual = 0.261383571726752, Final residual = 0.00218024958207259, No Iterations 8
GAMG:  Solving for p, Initial residual = 0.00521577542321622, Final residual = 3.48771507596459e-05, No Iterations 5
GAMG:  Solving for p, Initial residual = 0.00179612480879291, Final residual = 1.49296984084157e-05, No Iterations 5
GAMG:  Solving for p, Initial residual = 0.000708341303199017, Final residual = 6.48475134279075e-06, No Iterations 4
GAMG:  Solving for p, Initial residual = 0.000250670723931455, Final residual = 2.37715190123784e-06, No Iterations 5
GAMG:  Solving for p, Initial residual = 0.000113403768222843, Final residual = 9.23851641817004e-07, No Iterations 5
time step continuity errors : sum local = 0.000570478430359844, global = -0.000284540336373167, cumulative = 0.00212198000268491
smoothSolver:  Solving for epsilon, Initial residual = 0.538088462052438, Final residual = 5.46228218077497e-09, No Iterations 1
smoothSolver:  Solving for k, Initial residual = 0.411552809356575, Final residual = 0.022963294591617, No Iterations 4
bounding k, min: 3.27710210680556e-16 max: 0.99100241043821 average: 0.00177187411101296
ExecutionTime = 9.29 s  ClockTime = 10 s

Time = 27

smoothSolver:  Solving for Ux, Initial residual = 0.119638032774955, Final residual = 0.00209774702514542, No Iterations 1
smoothSolver:  Solving for Uy, Initial residual = 0.123232924933996, Final residual = 0.00217426936699897, No Iterations 1
smoothSolver:  Solving for Uz, Initial residual = 0.0813843815467589, Final residual = 0.0014866452432534, No Iterations 1
GAMG:  Solving for p, Initial residual = 0.150947121442321, Final residual = 0.001455118593601, No Iterations 9
GAMG:  Solving for p, Initial residual = 0.000637362653462525, Final residual = 6.31518137203941e-06, No Iterations 2
GAMG:  Solving for p, Initial residual = 0.000170469872049231, Final residual = 1.55476384321296e-06, No Iterations 10
GAMG:  Solving for p, Initial residual = 0.000141514949155954, Final residual = 1.00471071152227e-06, No Iterations 2
GAMG:  Solving for p, Initial residual = 3.80694631860511e-05, Final residual = 3.32657979477492e-07, No Iterations 7
GAMG:  Solving for p, Initial residual = 1.91925502314174e-05, Final residual = 1.8003948177407e-07, No Iterations 2
time step continuity errors : sum local = 0.00107735435576501, global = 0.00029028031684043, cumulative = 0.00241226031952534
smoothSolver:  Solving for epsilon, Initial residual = 0.531766806717736, Final residual = 2.91124643995735e-07, No Iterations 1
smoothSolver:  Solving for k, Initial residual = 0.18910726032119, Final residual = 0.0109404135760259, No Iterations 4
bounding k, min: 3.00006854550245e-16 max: 7.09581105430255 average: 0.00251590614673437
ExecutionTime = 9.73 s  ClockTime = 10 s

Time = 28

smoothSolver:  Solving for Ux, Initial residual = 0.11351245554554, Final residual = 0.00203805487626817, No Iterations 1
smoothSolver:  Solving for Uy, Initial residual = 0.118380856251457, Final residual = 0.00205459344997912, No Iterations 1
smoothSolver:  Solving for Uz, Initial residual = 0.0758847900661884, Final residual = 0.00140449594669862, No Iterations 1
GAMG:  Solving for p, Initial residual = 0.0123151518350621, Final residual = 0.000100657735822742, No Iterations 8
GAMG:  Solving for p, Initial residual = 0.000163567446180573, Final residual = 1.15636764678786e-06, No Iterations 2
GAMG:  Solving for p, Initial residual = 4.25798639236121e-05, Final residual = 3.48695484948653e-07, No Iterations 10
GAMG:  Solving for p, Initial residual = 2.17254633643487e-05, Final residual = 1.94831068637997e-07, No Iterations 2
GAMG:  Solving for p, Initial residual = 6.74695603913044e-06, Final residual = 4.21801692541947e-08, No Iterations 9
GAMG:  Solving for p, Initial residual = 4.76917537151982e-06, Final residual = 3.14389303710727e-08, No Iterations 2
time step continuity errors : sum local = 0.000696628326107068, global = 0.000113088213087919, cumulative = 0.00252534853261326
smoothSolver:  Solving for epsilon, Initial residual = 0.543173090742429, Final residual = 6.20590404346899e-07, No Iterations 1
smoothSolver:  Solving for k, Initial residual = 0.240624418610298, Final residual = 0.0146527305269124, No Iterations 4
bounding k, min: 3.00008476241361e-16 max: 17.3325085340422 average: 0.0036963635145872
ExecutionTime = 10.22 s  ClockTime = 10 s

Time = 29

smoothSolver:  Solving for Ux, Initial residual = 0.108375957462124, Final residual = 0.0018753162695869, No Iterations 1
smoothSolver:  Solving for Uy, Initial residual = 0.11529127630133, Final residual = 0.00203625956320668, No Iterations 1
smoothSolver:  Solving for Uz, Initial residual = 0.0666434829483942, Final residual = 0.00123559548843391, No Iterations 1
GAMG:  Solving for p, Initial residual = 0.00318018002931898, Final residual = 3.13582395703721e-05, No Iterations 4
GAMG:  Solving for p, Initial residual = 0.000148557165265, Final residual = 1.28805116908375e-06, No Iterations 19
GAMG:  Solving for p, Initial residual = 8.9931788606996e-05, Final residual = 6.66959268487777e-07, No Iterations 2
GAMG:  Solving for p, Initial residual = 2.33470622814937e-05, Final residual = 1.91223911029653e-07, No Iterations 3
GAMG:  Solving for p, Initial residual = 7.56742948715804e-06, Final residual = 1.04560436536683e-07, No Iterations 20
GAMG:  Solving for p, Initial residual = 4.56639957000464e-06, Final residual = 4.34179693402609e-08, No Iterations 11
time step continuity errors : sum local = 0.000888871522536431, global = 3.56329916672209e-05, cumulative = 0.00256098152428048
smoothSolver:  Solving for epsilon, Initial residual = 0.485972645099125, Final residual = 5.28956600513811e-06, No Iterations 1
smoothSolver:  Solving for k, Initial residual = 0.236330779802021, Final residual = 0.0138789343631027, No Iterations 4
bounding k, min: 3.00000020783043e-16 max: 24.4069645134181 average: 0.00513931026735153
ExecutionTime = 10.95 s  ClockTime = 11 s

Time = 30

smoothSolver:  Solving for Ux, Initial residual = 0.108323510932414, Final residual = 0.0019591179502989, No Iterations 1
smoothSolver:  Solving for Uy, Initial residual = 0.113753836038738, Final residual = 0.00199380286333504, No Iterations 1
smoothSolver:  Solving for Uz, Initial residual = 0.0590789885807499, Final residual = 0.00111919742158718, No Iterations 1
GAMG:  Solving for p, Initial residual = 0.00141505126325417, Final residual = 1.34846695420149e-05, No Iterations 7
GAMG:  Solving for p, Initial residual = 0.000197646170338886, Final residual = 1.50456747529412e-06, No Iterations 8
GAMG:  Solving for p, Initial residual = 0.000112039752197877, Final residual = 1.09721909573706e-06, No Iterations 2
GAMG:  Solving for p, Initial residual = 2.99076579061731e-05, Final residual = 2.87327410147471e-07, No Iterations 7
GAMG:  Solving for p, Initial residual = 1.73953811258237e-05, Final residual = 1.52417032716299e-07, No Iterations 2
GAMG:  Solving for p, Initial residual = 5.20878996455503e-06, Final residual = 4.14066023973466e-08, No Iterations 7
time step continuity errors : sum local = 0.000498326516699186, global = 4.3517811282314e-06, cumulative = 0.00256533330540871
smoothSolver:  Solving for epsilon, Initial residual = 0.160709571091476, Final residual = 9.15023179806206e-06, No Iterations 1
smoothSolver:  Solving for k, Initial residual = 0.145327162474116, Final residual = 0.00881689135416283, No Iterations 4
bounding k, min: 3.0000113826429e-16 max: 27.7678964562265 average: 0.00704711899445664
ExecutionTime = 11.45 s  ClockTime = 12 s

Time = 31

smoothSolver:  Solving for Ux, Initial residual = 0.107737475618969, Final residual = 0.00196437690209717, No Iterations 1
smoothSolver:  Solving for Uy, Initial residual = 0.110006233376917, Final residual = 0.00203137621262405, No Iterations 1
smoothSolver:  Solving for Uz, Initial residual = 0.0572343833318242, Final residual = 0.00109738995190941, No Iterations 1
GAMG:  Solving for p, Initial residual = 0.00132364029374652, Final residual = 1.11059032279382e-05, No Iterations 9
GAMG:  Solving for p, Initial residual = 8.1665425896117e-05, Final residual = 5.69532499449229e-07, No Iterations 2
GAMG:  Solving for p, Initial residual = 2.24940136401543e-05, Final residual = 1.65877548976339e-07, No Iterations 3
GAMG:  Solving for p, Initial residual = 8.28474209621443e-06, Final residual = 5.31388921597608e-08, No Iterations 7
GAMG:  Solving for p, Initial residual = 4.37526956078749e-06, Final residual = 3.55074537443086e-08, No Iterations 2
GAMG:  Solving for p, Initial residual = 1.42616746926961e-06, Final residual = 1.36137558925548e-08, No Iterations 7
time step continuity errors : sum local = 0.000436167200477945, global = 1.79156834833634e-05, cumulative = 0.00258324898889207
smoothSolver:  Solving for epsilon, Initial residual = 0.0271541147228734, Final residual = 1.54607453131112e-05, No Iterations 1
smoothSolver:  Solving for k, Initial residual = 0.0920204111433066, Final residual = 0.00520259393038323, No Iterations 4
bounding k, min: 3.00000440630748e-16 max: 25.4742815873034 average: 0.00940312670242714
ExecutionTime = 11.92 s  ClockTime = 12 s

Time = 32

smoothSolver:  Solving for Ux, Initial residual = 0.0932143641467165, Final residual = 0.00166666795022572, No Iterations 1
smoothSolver:  Solving for Uy, Initial residual = 0.0959806624099162, Final residual = 0.00175283086197752, No Iterations 1
smoothSolver:  Solving for Uz, Initial residual = 0.0478329161134424, Final residual = 0.000927611986940586, No Iterations 1
GAMG:  Solving for p, Initial residual = 0.000819902542319112, Final residual = 7.90533885912878e-06, No Iterations 19
GAMG:  Solving for p, Initial residual = 3.77299957816923e-05, Final residual = 2.93262743306217e-07, No Iterations 2
GAMG:  Solving for p, Initial residual = 1.0162113207106e-05, Final residual = 9.22803822315774e-08, No Iterations 3
GAMG:  Solving for p, Initial residual = 3.46500457509115e-06, Final residual = 2.16292567337483e-07, No Iterations 20
GAMG:  Solving for p, Initial residual = 2.03533242278935e-06, Final residual = 6.43436472274857e-08, No Iterations 20
GAMG:  Solving for p, Initial residual = 1.13278030901055e-06, Final residual = 2.22801355303072e-08, No Iterations 20
time step continuity errors : sum local = 0.0015054111733446, global = 7.49885648265144e-05, cumulative = 0.00265823755371859
smoothSolver:  Solving for epsilon, Initial residual = 0.0035499422070886, Final residual = 2.26658688396474e-05, No Iterations 1
smoothSolver:  Solving for k, Initial residual = 0.051615141761428, Final residual = 0.00304104684346947, No Iterations 4
bounding k, min: 3.00041211533813e-16 max: 143.681318610997 average: 0.0138442703629565
ExecutionTime = 12.87 s  ClockTime = 13 s

Time = 33

smoothSolver:  Solving for Ux, Initial residual = 0.0811738836557784, Final residual = 0.0015941449582463, No Iterations 1
smoothSolver:  Solving for Uy, Initial residual = 0.0832318619507417, Final residual = 0.00160809482068663, No Iterations 1
smoothSolver:  Solving for Uz, Initial residual = 0.0383341648794379, Final residual = 0.000764273514653247, No Iterations 1
GAMG:  Solving for p, Initial residual = 0.000485162028730224, Final residual = 4.38850768335307e-06, No Iterations 3
GAMG:  Solving for p, Initial residual = 3.00350061975645e-05, Final residual = 1.13146801229897e-07, No Iterations 7
GAMG:  Solving for p, Initial residual = 1.19927898070108e-05, Final residual = 8.57023619434735e-08, No Iterations 2
GAMG:  Solving for p, Initial residual = 3.0895422277935e-06, Final residual = 2.8199145287234e-08, No Iterations 2
GAMG:  Solving for p, Initial residual = 9.67365111910901e-07, Final residual = 9.72603985617585e-09, No Iterations 8
GAMG:  Solving for p, Initial residual = 5.54233157216125e-07, Final residual = 4.02271075693642e-09, No Iterations 2
time step continuity errors : sum local = 0.000402695842307967, global = 3.5539232353231e-05, cumulative = 0.00269377678607182
smoothSolver:  Solving for epsilon, Initial residual = 0.0003976894272547, Final residual = 3.20086168325485e-05, No Iterations 1
smoothSolver:  Solving for k, Initial residual = 0.0293790090168009, Final residual = 0.0018069943656572, No Iterations 4
bounding k, min: 3.00000096035555e-16 max: 882.401280093023 average: 0.0280214157621577
ExecutionTime = 13.27 s  ClockTime = 14 s

Time = 34

smoothSolver:  Solving for Ux, Initial residual = 0.062657257492091, Final residual = 0.00134922603340028, No Iterations 1
smoothSolver:  Solving for Uy, Initial residual = 0.067544359643679, Final residual = 0.0014462751737469, No Iterations 1
smoothSolver:  Solving for Uz, Initial residual = 0.0272812215113027, Final residual = 0.000603351697066578, No Iterations 1
GAMG:  Solving for p, Initial residual = 0.000280299812953782, Final residual = 1.90158315673565e-06, No Iterations 3
GAMG:  Solving for p, Initial residual = 2.09011952811583e-05, Final residual = 1.85996073719004e-07, No Iterations 5
GAMG:  Solving for p, Initial residual = 5.60875074172596e-06, Final residual = 4.96899647693388e-08, No Iterations 2
GAMG:  Solving for p, Initial residual = 1.65024914180695e-06, Final residual = 1.50039780038095e-08, No Iterations 7
GAMG:  Solving for p, Initial residual = 1.61202205036651e-06, Final residual = 8.80940995490864e-09, No Iterations 2
GAMG:  Solving for p, Initial residual = 4.17334614823519e-07, Final residual = 2.87347414556546e-09, No Iterations 2
time step continuity errors : sum local = 0.000341054823923643, global = -4.70694577448033e-05, cumulative = 0.00264670732832701
smoothSolver:  Solving for epsilon, Initial residual = 0.00194303941585451, Final residual = 0.000122937692753406, No Iterations 2
smoothSolver:  Solving for k, Initial residual = 0.0348114194380934, Final residual = 0.00238216259684817, No Iterations 3
ExecutionTime = 13.67 s  ClockTime = 14 s

Time = 35

smoothSolver:  Solving for Ux, Initial residual = 0.0592144271743, Final residual = 0.00139431768621074, No Iterations 1
smoothSolver:  Solving for Uy, Initial residual = 0.064300732763909, Final residual = 0.00148737979864957, No Iterations 1
smoothSolver:  Solving for Uz, Initial residual = 0.0237591590090936, Final residual = 0.000567928727842024, No Iterations 1
GAMG:  Solving for p, Initial residual = 0.00031991395542418, Final residual = 2.25485442763137e-06, No Iterations 3
GAMG:  Solving for p, Initial residual = 3.26534635784794e-05, Final residual = 1.95148206775205e-07, No Iterations 3
GAMG:  Solving for p, Initial residual = 6.95413382641756e-06, Final residual = 5.67726748596386e-08, No Iterations 4
GAMG:  Solving for p, Initial residual = 2.68152353459885e-06, Final residual = 2.3417172390311e-08, No Iterations 2
GAMG:  Solving for p, Initial residual = 7.89353852263689e-07, Final residual = 6.73306284701752e-09, No Iterations 6
GAMG:  Solving for p, Initial residual = 6.51868235022977e-07, Final residual = 4.53588938408286e-09, No Iterations 2
time step continuity errors : sum local = 0.000473990324738436, global = 1.41066265980429e-05, cumulative = 0.00266081395492506
smoothSolver:  Solving for epsilon, Initial residual = 0.000172027324282128, Final residual = 1.03154416468473e-05, No Iterations 4
smoothSolver:  Solving for k, Initial residual = 0.00777310322984328, Final residual = 0.00044775979835098, No Iterations 4
ExecutionTime = 14.04 s  ClockTime = 14 s

Time = 36

smoothSolver:  Solving for Ux, Initial residual = 0.0651182386109453, Final residual = 0.00147590647955693, No Iterations 1
smoothSolver:  Solving for Uy, Initial residual = 0.0717784397052066, Final residual = 0.00173240628323929, No Iterations 1
smoothSolver:  Solving for Uz, Initial residual = 0.0226731416314013, Final residual = 0.000546477106030497, No Iterations 1
GAMG:  Solving for p, Initial residual = 0.00123040718531233, Final residual = 1.06630134290155e-05, No Iterations 3
GAMG:  Solving for p, Initial residual = 0.000274547058496532, Final residual = 2.15468281205875e-06, No Iterations 3
GAMG:  Solving for p, Initial residual = 7.63714664869905e-05, Final residual = 5.89824461826524e-07, No Iterations 7
GAMG:  Solving for p, Initial residual = 3.63521222554781e-05, Final residual = 2.49990997832366e-07, No Iterations 2
GAMG:  Solving for p, Initial residual = 1.09031724067813e-05, Final residual = 1.01268749331411e-07, No Iterations 2
GAMG:  Solving for p, Initial residual = 4.02278343136232e-06, Final residual = 2.35782496810131e-08, No Iterations 7
time step continuity errors : sum local = 0.00123513113750537, global = -1.03003422298076e-05, cumulative = 0.00265051361269525
smoothSolver:  Solving for epsilon, Initial residual = 0.000878019133218167, Final residual = 4.37111343096326e-05, No Iterations 4
smoothSolver:  Solving for k, Initial residual = 0.145120922534827, Final residual = 0.011932534365443, No Iterations 4
ExecutionTime = 14.47 s  ClockTime = 15 s

Time = 37

smoothSolver:  Solving for Ux, Initial residual = 0.117884483908566, Final residual = 0.00205475347480362, No Iterations 1
smoothSolver:  Solving for Uy, Initial residual = 0.106459762513474, Final residual = 0.00231009033704549, No Iterations 1
smoothSolver:  Solving for Uz, Initial residual = 0.0497682393694884, Final residual = 0.00088613832761337, No Iterations 1
GAMG:  Solving for p, Initial residual = 0.00175107153065736, Final residual = 1.16522092015259e-05, No Iterations 6
GAMG:  Solving for p, Initial residual = 1.96076692933038e-05, Final residual = 1.41967609200186e-07, No Iterations 4
GAMG:  Solving for p, Initial residual = 7.29627692141974e-06, Final residual = 7.20149854287582e-08, No Iterations 5
GAMG:  Solving for p, Initial residual = 2.69980868647816e-06, Final residual = 1.77645343032339e-08, No Iterations 10
GAMG:  Solving for p, Initial residual = 2.31158682690177e-06, Final residual = 2.07644975145055e-08, No Iterations 2
GAMG:  Solving for p, Initial residual = 6.50037181941291e-07, Final residual = 6.70204178151927e-09, No Iterations 2
time step continuity errors : sum local = 0.0069654064652245, global = 9.89939268237364e-05, cumulative = 0.00274950753951899
smoothSolver:  Solving for epsilon, Initial residual = 0.438335861796995, Final residual = 0.0333835675023131, No Iterations 4
smoothSolver:  Solving for k, Initial residual = 0.366208670218916, Final residual = 0.0277126003361634, No Iterations 4
ExecutionTime = 14.91 s  ClockTime = 15 s

Time = 38

smoothSolver:  Solving for Ux, Initial residual = 0.112789614794291, Final residual = 0.00259734012899663, No Iterations 1
smoothSolver:  Solving for Uy, Initial residual = 0.125917807545997, Final residual = 0.00284119009408795, No Iterations 1
smoothSolver:  Solving for Uz, Initial residual = 0.070707215385958, Final residual = 0.0013411671397359, No Iterations 1
GAMG:  Solving for p, Initial residual = 0.000554120790018155, Final residual = 3.92546670729339e-06, No Iterations 5
GAMG:  Solving for p, Initial residual = 2.094685048983e-05, Final residual = 1.77169013736238e-07, No Iterations 3
GAMG:  Solving for p, Initial residual = 6.13259149109408e-06, Final residual = 5.98728348739254e-08, No Iterations 5
GAMG:  Solving for p, Initial residual = 2.70949653260374e-06, Final residual = 1.82710130481657e-08, No Iterations 8
GAMG:  Solving for p, Initial residual = 1.3653645116544e-06, Final residual = 1.31059220817759e-08, No Iterations 2
GAMG:  Solving for p, Initial residual = 4.19156333294547e-07, Final residual = 5.53120909552767e-09, No Iterations 2
time step continuity errors : sum local = 0.00682495973889804, global = -0.00087299149194806, cumulative = 0.00187651604757093
smoothSolver:  Solving for epsilon, Initial residual = 0.257084230039507, Final residual = 0.0205157578613937, No Iterations 4
smoothSolver:  Solving for k, Initial residual = 0.205707693624176, Final residual = 0.0122863858547805, No Iterations 4
ExecutionTime = 15.32 s  ClockTime = 16 s

Time = 39

smoothSolver:  Solving for Ux, Initial residual = 0.102089585120039, Final residual = 0.00223980204761307, No Iterations 1
smoothSolver:  Solving for Uy, Initial residual = 0.122131673518492, Final residual = 0.00256811266717533, No Iterations 1
smoothSolver:  Solving for Uz, Initial residual = 0.0640823542406908, Final residual = 0.00135798105572156, No Iterations 1
GAMG:  Solving for p, Initial residual = 0.000272164458807866, Final residual = 2.54809759462277e-06, No Iterations 4
GAMG:  Solving for p, Initial residual = 4.41999275183661e-05, Final residual = 3.5234106642691e-07, No Iterations 4
GAMG:  Solving for p, Initial residual = 1.31464015033571e-05, Final residual = 9.52716154393976e-08, No Iterations 9
GAMG:  Solving for p, Initial residual = 9.99714785987773e-06, Final residual = 8.40503628107035e-08, No Iterations 2
GAMG:  Solving for p, Initial residual = 2.55204972002823e-06, Final residual = 1.69271963686267e-08, No Iterations 3
GAMG:  Solving for p, Initial residual = 8.37228019953483e-07, Final residual = 9.82112486537929e-09, No Iterations 3
time step continuity errors : sum local = 0.00479586472326631, global = 9.58240259893331e-05, cumulative = 0.00197234007356026
smoothSolver:  Solving for epsilon, Initial residual = 0.17598747660149, Final residual = 0.0103152198071048, No Iterations 4
smoothSolver:  Solving for k, Initial residual = 0.0949425692728205, Final residual = 0.00847451864545081, No Iterations 3
ExecutionTime = 15.75 s  ClockTime = 16 s

Time = 40

smoothSolver:  Solving for Ux, Initial residual = 0.103085052283795, Final residual = 0.00253734389214979, No Iterations 1
smoothSolver:  Solving for Uy, Initial residual = 0.129427085912156, Final residual = 0.00300032000417482, No Iterations 1
smoothSolver:  Solving for Uz, Initial residual = 0.070383093217317, Final residual = 0.00163874553945663, No Iterations 1
GAMG:  Solving for p, Initial residual = 0.00023556020942698, Final residual = 1.58836129665777e-06, No Iterations 4
GAMG:  Solving for p, Initial residual = 0.00016824124411686, Final residual = 1.41329844557472e-06, No Iterations 4
GAMG:  Solving for p, Initial residual = 3.88411890743867e-05, Final residual = 2.75668442802618e-07, No Iterations 9
GAMG:  Solving for p, Initial residual = 3.52523889295759e-05, Final residual = 2.70254071705737e-07, No Iterations 2
GAMG:  Solving for p, Initial residual = 8.82998418528205e-06, Final residual = 5.3111240784339e-08, No Iterations 3
GAMG:  Solving for p, Initial residual = 2.836188905426e-06, Final residual = 2.70486890273343e-08, No Iterations 4
time step continuity errors : sum local = 0.00311389406166134, global = 0.000335379776922932, cumulative = 0.00230771985048319
smoothSolver:  Solving for epsilon, Initial residual = 0.110445242850853, Final residual = 0.0084283903126704, No Iterations 3
smoothSolver:  Solving for k, Initial residual = 0.0589111507440156, Final residual = 0.00506202332346221, No Iterations 3
ExecutionTime = 16.18 s  ClockTime = 16 s

Time = 41

smoothSolver:  Solving for Ux, Initial residual = 0.102849731676938, Final residual = 0.00263766184113023, No Iterations 1
smoothSolver:  Solving for Uy, Initial residual = 0.133863629804711, Final residual = 0.00311455988925519, No Iterations 1
smoothSolver:  Solving for Uz, Initial residual = 0.0779077347648241, Final residual = 0.00184955623637509, No Iterations 1
GAMG:  Solving for p, Initial residual = 0.000362518893592918, Final residual = 2.15515867479556e-06, No Iterations 4
GAMG:  Solving for p, Initial residual = 0.000125780901689695, Final residual = 9.24044182637698e-07, No Iterations 3
GAMG:  Solving for p, Initial residual = 3.53914961459131e-05, Final residual = 1.83788731014674e-07, No Iterations 9
GAMG:  Solving for p, Initial residual = 2.30625254052116e-05, Final residual = 1.68063092764538e-07, No Iterations 2
GAMG:  Solving for p, Initial residual = 6.10738905364414e-06, Final residual = 5.99616056887556e-08, No Iterations 2
GAMG:  Solving for p, Initial residual = 2.01281738979768e-06, Final residual = 1.62643963308162e-08, No Iterations 4
time step continuity errors : sum local = 0.00170050545415197, global = 0.000136333313421375, cumulative = 0.00244405316390457
smoothSolver:  Solving for epsilon, Initial residual = 0.0677597404135874, Final residual = 0.00585581404566683, No Iterations 3
smoothSolver:  Solving for k, Initial residual = 0.0425395495214871, Final residual = 0.00207618999362756, No Iterations 4
ExecutionTime = 16.58 s  ClockTime = 17 s

Time = 42

smoothSolver:  Solving for Ux, Initial residual = 0.0863872791652465, Final residual = 0.0022882398025256, No Iterations 1
smoothSolver:  Solving for Uy, Initial residual = 0.117663572742464, Final residual = 0.0028795562822793, No Iterations 1
smoothSolver:  Solving for Uz, Initial residual = 0.0698673558877784, Final residual = 0.00164433455557421, No Iterations 1
GAMG:  Solving for p, Initial residual = 0.000616017129869837, Final residual = 3.34691362425581e-06, No Iterations 4
GAMG:  Solving for p, Initial residual = 7.19573902521084e-05, Final residual = 5.13891578729864e-07, No Iterations 3
GAMG:  Solving for p, Initial residual = 2.00035158043802e-05, Final residual = 1.71233964267026e-07, No Iterations 5
GAMG:  Solving for p, Initial residual = 7.17749014450155e-06, Final residual = 4.19141404351629e-08, No Iterations 9
GAMG:  Solving for p, Initial residual = 4.46625520935333e-06, Final residual = 3.57191919819689e-08, No Iterations 2
GAMG:  Solving for p, Initial residual = 1.22618026580825e-06, Final residual = 8.46475459121984e-09, No Iterations 3
time step continuity errors : sum local = 0.00159843808766891, global = -0.00019846700977117, cumulative = 0.0022455861541334
smoothSolver:  Solving for epsilon, Initial residual = 0.0490547650164554, Final residual = 0.00275243685639983, No Iterations 4
smoothSolver:  Solving for k, Initial residual = 0.0320557662772256, Final residual = 0.00178964629854365, No Iterations 4
ExecutionTime = 16.99 s  ClockTime = 17 s

Time = 43

smoothSolver:  Solving for Ux, Initial residual = 0.0693698339420873, Final residual = 0.00193879452954972, No Iterations 1
smoothSolver:  Solving for Uy, Initial residual = 0.0996892523628301, Final residual = 0.00256011168088813, No Iterations 1
smoothSolver:  Solving for Uz, Initial residual = 0.0591154972142562, Final residual = 0.00144291543303694, No Iterations 1
GAMG:  Solving for p, Initial residual = 0.00212752930949922, Final residual = 2.06590263977716e-05, No Iterations 3
GAMG:  Solving for p, Initial residual = 0.000108358836639403, Final residual = 9.64367140577346e-07, No Iterations 3
GAMG:  Solving for p, Initial residual = 3.06380701934253e-05, Final residual = 2.17735371307138e-07, No Iterations 9
GAMG:  Solving for p, Initial residual = 1.7961645497859e-05, Final residual = 1.64834354900603e-07, No Iterations 2
GAMG:  Solving for p, Initial residual = 4.58330095686102e-06, Final residual = 3.76501288924627e-08, No Iterations 4
GAMG:  Solving for p, Initial residual = 1.60397393677905e-06, Final residual = 1.02456404365247e-08, No Iterations 9
time step continuity errors : sum local = 0.00153456110114151, global = 3.50747191745938e-05, cumulative = 0.00228066087330799
smoothSolver:  Solving for epsilon, Initial residual = 0.0451449390625193, Final residual = 0.00293102489472988, No Iterations 4
smoothSolver:  Solving for k, Initial residual = 0.0266562546933433, Final residual = 0.00163031199443276, No Iterations 4
ExecutionTime = 17.44 s  ClockTime = 18 s

Time = 44

smoothSolver:  Solving for Ux, Initial residual = 0.056190029489843, Final residual = 0.00153991050974283, No Iterations 1
smoothSolver:  Solving for Uy, Initial residual = 0.0841466341088438, Final residual = 0.00214975430265348, No Iterations 1
smoothSolver:  Solving for Uz, Initial residual = 0.0526988940669074, Final residual = 0.00126297309272393, No Iterations 1
GAMG:  Solving for p, Initial residual = 0.0100482959208462, Final residual = 7.36635440676421e-05, No Iterations 4
GAMG:  Solving for p, Initial residual = 0.000140000500752586, Final residual = 1.0956996452971e-06, No Iterations 4
GAMG:  Solving for p, Initial residual = 4.37218718301938e-05, Final residual = 3.63311021390933e-07, No Iterations 9
GAMG:  Solving for p, Initial residual = 2.89277595155112e-05, Final residual = 2.67825477038311e-07, No Iterations 2
GAMG:  Solving for p, Initial residual = 7.46898579066552e-06, Final residual = 7.0976281679776e-08, No Iterations 3
GAMG:  Solving for p, Initial residual = 2.57114239354913e-06, Final residual = 2.13304507922895e-08, No Iterations 9
time step continuity errors : sum local = 0.00258470150633663, global = 5.94434783859982e-05, cumulative = 0.00234010435169399
smoothSolver:  Solving for epsilon, Initial residual = 0.0412253686177039, Final residual = 0.0029251210014186, No Iterations 4
smoothSolver:  Solving for k, Initial residual = 0.0221061270286371, Final residual = 0.00150145775491871, No Iterations 4
ExecutionTime = 17.91 s  ClockTime = 18 s

Time = 45

smoothSolver:  Solving for Ux, Initial residual = 0.0432466578258857, Final residual = 0.00111508872297781, No Iterations 1
smoothSolver:  Solving for Uy, Initial residual = 0.0675529729029467, Final residual = 0.00167586246941638, No Iterations 1
smoothSolver:  Solving for Uz, Initial residual = 0.0452504741651516, Final residual = 0.00104293705170828, No Iterations 1
GAMG:  Solving for p, Initial residual = 0.00757421283596321, Final residual = 5.52301170350149e-05, No Iterations 4
GAMG:  Solving for p, Initial residual = 0.000185057224620212, Final residual = 1.54480856893538e-06, No Iterations 4
GAMG:  Solving for p, Initial residual = 5.69695371572008e-05, Final residual = 5.06892135914231e-07, No Iterations 9
GAMG:  Solving for p, Initial residual = 4.1386702420269e-05, Final residual = 3.74281974807383e-07, No Iterations 2
GAMG:  Solving for p, Initial residual = 1.05270714719408e-05, Final residual = 9.10421090141494e-08, No Iterations 3
GAMG:  Solving for p, Initial residual = 3.53348641688309e-06, Final residual = 3.05892920236805e-08, No Iterations 9
time step continuity errors : sum local = 0.00283077618144108, global = 6.94288204802231e-05, cumulative = 0.00240953317217421
smoothSolver:  Solving for epsilon, Initial residual = 0.0346399899774319, Final residual = 0.00256668473041725, No Iterations 4
smoothSolver:  Solving for k, Initial residual = 0.0180982478083384, Final residual = 0.00128374547261095, No Iterations 4
ExecutionTime = 18.35 s  ClockTime = 19 s

Time = 46

smoothSolver:  Solving for Ux, Initial residual = 0.0340419875437685, Final residual = 0.000829028150138973, No Iterations 1
smoothSolver:  Solving for Uy, Initial residual = 0.0604555630117786, Final residual = 0.00151752842340986, No Iterations 1
smoothSolver:  Solving for Uz, Initial residual = 0.0432411770241608, Final residual = 0.00102365545101424, No Iterations 1
GAMG:  Solving for p, Initial residual = 0.00409544527339842, Final residual = 2.7229853267836e-05, No Iterations 4
GAMG:  Solving for p, Initial residual = 0.000287622699983497, Final residual = 2.24438502693506e-06, No Iterations 4
GAMG:  Solving for p, Initial residual = 8.70888068793503e-05, Final residual = 7.41102757379261e-07, No Iterations 9
GAMG:  Solving for p, Initial residual = 6.3098156630101e-05, Final residual = 5.40693399543598e-07, No Iterations 2
GAMG:  Solving for p, Initial residual = 1.60764472486679e-05, Final residual = 1.29345943320636e-07, No Iterations 3
GAMG:  Solving for p, Initial residual = 5.35995829426354e-06, Final residual = 4.19694226459621e-08, No Iterations 9
time step continuity errors : sum local = 0.00234884676636494, global = 3.85577649997816e-05, cumulative = 0.00244809093717399
smoothSolver:  Solving for epsilon, Initial residual = 0.0285251928128404, Final residual = 0.00201705536115301, No Iterations 4
smoothSolver:  Solving for k, Initial residual = 0.0154320115526687, Final residual = 0.00104202050231291, No Iterations 4
ExecutionTime = 18.82 s  ClockTime = 19 s

Time = 47

smoothSolver:  Solving for Ux, Initial residual = 0.03649912904735, Final residual = 0.000916208736262663, No Iterations 1
smoothSolver:  Solving for Uy, Initial residual = 0.0664271743585979, Final residual = 0.00161619091250809, No Iterations 1
smoothSolver:  Solving for Uz, Initial residual = 0.0483061010636305, Final residual = 0.00116305431583315, No Iterations 1
GAMG:  Solving for p, Initial residual = 0.00347873545512746, Final residual = 1.98448836016763e-05, No Iterations 4
GAMG:  Solving for p, Initial residual = 0.000532474157020743, Final residual = 4.78722428620607e-06, No Iterations 3
GAMG:  Solving for p, Initial residual = 0.00014833455571807, Final residual = 1.04274061664882e-06, No Iterations 9
GAMG:  Solving for p, Initial residual = 0.000103673997620954, Final residual = 8.54882734194376e-07, No Iterations 2
GAMG:  Solving for p, Initial residual = 2.68079959450932e-05, Final residual = 2.00057714605511e-07, No Iterations 3
GAMG:  Solving for p, Initial residual = 8.91473376516669e-06, Final residual = 8.6273968719338e-08, No Iterations 6
time step continuity errors : sum local = 0.00237809426733844, global = 0.000165165555884717, cumulative = 0.00261325649305871
smoothSolver:  Solving for epsilon, Initial residual = 0.0221510825983369, Final residual = 0.00146124689461656, No Iterations 4
smoothSolver:  Solving for k, Initial residual = 0.0142083049493336, Final residual = 0.000893613128582384, No Iterations 4
ExecutionTime = 19.26 s  ClockTime = 20 s

Time = 48

smoothSolver:  Solving for Ux, Initial residual = 0.0417363724119581, Final residual = 0.00112444285506291, No Iterations 1
smoothSolver:  Solving for Uy, Initial residual = 0.0754375003417023, Final residual = 0.00188508045904772, No Iterations 1
smoothSolver:  Solving for Uz, Initial residual = 0.0556107490825627, Final residual = 0.00139922121708454, No Iterations 1
GAMG:  Solving for p, Initial residual = 0.00366168522223646, Final residual = 3.17273126381027e-05, No Iterations 3
GAMG:  Solving for p, Initial residual = 0.00208527537293857, Final residual = 1.7579175911872e-05, No Iterations 3
GAMG:  Solving for p, Initial residual = 0.000544411917011221, Final residual = 3.34816175481402e-06, No Iterations 9
GAMG:  Solving for p, Initial residual = 0.000342077264479709, Final residual = 2.66976909512747e-06, No Iterations 2
GAMG:  Solving for p, Initial residual = 8.91211106977409e-05, Final residual = 6.68373230031828e-07, No Iterations 3
GAMG:  Solving for p, Initial residual = 2.9168412037474e-05, Final residual = 2.51058330143576e-07, No Iterations 8
time step continuity errors : sum local = 0.00159785642946792, global = 4.80601426915291e-05, cumulative = 0.00266131663575024
smoothSolver:  Solving for epsilon, Initial residual = 0.0184629634702728, Final residual = 0.00113520362430656, No Iterations 4
smoothSolver:  Solving for k, Initial residual = 0.0133955713140624, Final residual = 0.000822444529094863, No Iterations 4
ExecutionTime = 19.68 s  ClockTime = 20 s

Time = 49

smoothSolver:  Solving for Ux, Initial residual = 0.0447069260151443, Final residual = 0.00125997524400822, No Iterations 1
smoothSolver:  Solving for Uy, Initial residual = 0.07970516144451, Final residual = 0.00204152815251562, No Iterations 1
smoothSolver:  Solving for Uz, Initial residual = 0.0613693936879989, Final residual = 0.00159359419382351, No Iterations 1
GAMG:  Solving for p, Initial residual = 0.00430070326795104, Final residual = 3.11044413469371e-05, No Iterations 3
GAMG:  Solving for p, Initial residual = 0.00142402059527209, Final residual = 9.20288974736789e-06, No Iterations 3
GAMG:  Solving for p, Initial residual = 0.000369981258667715, Final residual = 3.36721176758445e-06, No Iterations 4
GAMG:  Solving for p, Initial residual = 0.000122773529656377, Final residual = 1.11277839352457e-06, No Iterations 8
GAMG:  Solving for p, Initial residual = 7.44821265145155e-05, Final residual = 6.20327022715765e-07, No Iterations 2
GAMG:  Solving for p, Initial residual = 2.03169424126166e-05, Final residual = 1.80139915118782e-07, No Iterations 3
time step continuity errors : sum local = 0.00154322027910355, global = 8.82409844799925e-05, cumulative = 0.00274955762023023
smoothSolver:  Solving for epsilon, Initial residual = 0.0162445791576741, Final residual = 0.000983947506935091, No Iterations 4
smoothSolver:  Solving for k, Initial residual = 0.0126278327636525, Final residual = 0.000779129402025133, No Iterations 4
ExecutionTime = 20.07 s  ClockTime = 20 s

Time = 50

smoothSolver:  Solving for Ux, Initial residual = 0.0452179845400544, Final residual = 0.00129619352229537, No Iterations 1
smoothSolver:  Solving for Uy, Initial residual = 0.0765128611970159, Final residual = 0.00197898358451626, No Iterations 1
smoothSolver:  Solving for Uz, Initial residual = 0.0628493271822352, Final residual = 0.00166795933602592, No Iterations 1
GAMG:  Solving for p, Initial residual = 0.00571607477272734, Final residual = 4.30475200747291e-05, No Iterations 3
GAMG:  Solving for p, Initial residual = 0.000674630563910349, Final residual = 4.74771662832933e-06, No Iterations 3
GAMG:  Solving for p, Initial residual = 0.000172952324265644, Final residual = 1.6134209974722e-06, No Iterations 5
GAMG:  Solving for p, Initial residual = 6.28855636924628e-05, Final residual = 2.65108652187859e-07, No Iterations 9
GAMG:  Solving for p, Initial residual = 4.28159098019037e-05, Final residual = 3.20208741817101e-07, No Iterations 2
GAMG:  Solving for p, Initial residual = 1.10737869798782e-05, Final residual = 7.16043650928836e-08, No Iterations 3
time step continuity errors : sum local = 0.00124574370680918, global = 0.000220532234098379, cumulative = 0.00297008985432861
smoothSolver:  Solving for epsilon, Initial residual = 0.0142359244543512, Final residual = 0.000861877713204132, No Iterations 4
smoothSolver:  Solving for k, Initial residual = 0.0116781441153336, Final residual = 0.000738033135474465, No Iterations 4
ExecutionTime = 20.48 s  ClockTime = 21 s

Time = 51

smoothSolver:  Solving for Ux, Initial residual = 0.0422511525750848, Final residual = 0.00122117159576647, No Iterations 1
smoothSolver:  Solving for Uy, Initial residual = 0.0675416737244412, Final residual = 0.00174664130415068, No Iterations 1
smoothSolver:  Solving for Uz, Initial residual = 0.0597847267563601, Final residual = 0.00160269658796366, No Iterations 1
GAMG:  Solving for p, Initial residual = 0.00880521514395506, Final residual = 7.0915441435666e-05, No Iterations 3
GAMG:  Solving for p, Initial residual = 0.000545273276400012, Final residual = 4.67667170302231e-06, No Iterations 3
GAMG:  Solving for p, Initial residual = 0.000144988383929183, Final residual = 1.12510535134173e-06, No Iterations 9
GAMG:  Solving for p, Initial residual = 8.6077574411316e-05, Final residual = 6.64992770453322e-07, No Iterations 2
GAMG:  Solving for p, Initial residual = 2.23779785258981e-05, Final residual = 1.90360216833088e-07, No Iterations 3
GAMG:  Solving for p, Initial residual = 7.32422612692861e-06, Final residual = 6.76705782019975e-08, No Iterations 8
time step continuity errors : sum local = 0.00144686856178915, global = -3.77288047212257e-05, cumulative = 0.00293236104960738
smoothSolver:  Solving for epsilon, Initial residual = 0.0121219957506549, Final residual = 0.000742721715234759, No Iterations 4
smoothSolver:  Solving for k, Initial residual = 0.0107188218015782, Final residual = 0.000691808785615421, No Iterations 4
ExecutionTime = 20.91 s  ClockTime = 21 s

Time = 52

smoothSolver:  Solving for Ux, Initial residual = 0.0371914085696166, Final residual = 0.00105682212093096, No Iterations 1
smoothSolver:  Solving for Uy, Initial residual = 0.0555663567457649, Final residual = 0.00141231739746484, No Iterations 1
smoothSolver:  Solving for Uz, Initial residual = 0.0531303276194411, Final residual = 0.00141677511167653, No Iterations 1
[...]
ExecutionTime = 728.42 s  ClockTime = 747 s

Time = 1988

smoothSolver:  Solving for Ux, Initial residual = 0.000136742155678117, Final residual = 4.99766860827309e-06, No Iterations 1
smoothSolver:  Solving for Uy, Initial residual = 0.000142443260781532, Final residual = 5.29914859373376e-06, No Iterations 1
smoothSolver:  Solving for Uz, Initial residual = 0.000171590878422931, Final residual = 6.09210315880744e-06, No Iterations 1
GAMG:  Solving for p, Initial residual = 0.00547036960916624, Final residual = 4.61801164003402e-05, No Iterations 2
GAMG:  Solving for p, Initial residual = 0.00100202915588961, Final residual = 8.05185037283869e-06, No Iterations 3
GAMG:  Solving for p, Initial residual = 0.000254353159470303, Final residual = 1.71352000445778e-06, No Iterations 4
GAMG:  Solving for p, Initial residual = 8.33088317520607e-05, Final residual = 6.90421908128692e-07, No Iterations 3
GAMG:  Solving for p, Initial residual = 2.42282005516866e-05, Final residual = 1.61987908502437e-07, No Iterations 5
GAMG:  Solving for p, Initial residual = 1.33084499534211e-05, Final residual = 1.16874529997417e-07, No Iterations 2
time step continuity errors : sum local = 1.79074615460065e-07, global = 2.25849044425417e-08, cumulative = 0.00298810055108441
smoothSolver:  Solving for epsilon, Initial residual = 0.000921004898016737, Final residual = 6.9769521050551e-05, No Iterations 4
smoothSolver:  Solving for k, Initial residual = 0.000765030437846969, Final residual = 5.80125397017627e-05, No Iterations 4
ExecutionTime = 728.76 s  ClockTime = 748 s

Time = 1989

smoothSolver:  Solving for Ux, Initial residual = 0.000136721780791891, Final residual = 4.99620262932454e-06, No Iterations 1
smoothSolver:  Solving for Uy, Initial residual = 0.000142687200389941, Final residual = 5.29464051630191e-06, No Iterations 1
smoothSolver:  Solving for Uz, Initial residual = 0.000174155138598529, Final residual = 6.07971377330733e-06, No Iterations 1
GAMG:  Solving for p, Initial residual = 0.00543510830852147, Final residual = 4.61653368387138e-05, No Iterations 2
GAMG:  Solving for p, Initial residual = 0.00102671799321121, Final residual = 8.07740694469982e-06, No Iterations 3
GAMG:  Solving for p, Initial residual = 0.000264907188475717, Final residual = 1.97001762129922e-06, No Iterations 4
GAMG:  Solving for p, Initial residual = 9.08804392790247e-05, Final residual = 7.52918325870806e-07, No Iterations 3
GAMG:  Solving for p, Initial residual = 2.63899889166691e-05, Final residual = 1.70481795566912e-07, No Iterations 5
GAMG:  Solving for p, Initial residual = 1.43664704535121e-05, Final residual = 1.24039096829943e-07, No Iterations 2
time step continuity errors : sum local = 1.90098281763486e-07, global = 1.81342336208683e-08, cumulative = 0.00298811868531803
smoothSolver:  Solving for epsilon, Initial residual = 0.000917868457077426, Final residual = 6.91996945710104e-05, No Iterations 4
smoothSolver:  Solving for k, Initial residual = 0.000759888388894323, Final residual = 5.73619586718935e-05, No Iterations 4
ExecutionTime = 729.12 s  ClockTime = 748 s

Time = 1990

smoothSolver:  Solving for Ux, Initial residual = 0.000136488597372785, Final residual = 4.98797417848333e-06, No Iterations 1
smoothSolver:  Solving for Uy, Initial residual = 0.000142390494782047, Final residual = 5.2741289906404e-06, No Iterations 1
smoothSolver:  Solving for Uz, Initial residual = 0.000175092728658909, Final residual = 6.13571128176331e-06, No Iterations 1
GAMG:  Solving for p, Initial residual = 0.00536556487052335, Final residual = 4.41720853695998e-05, No Iterations 2
GAMG:  Solving for p, Initial residual = 0.000994493150052994, Final residual = 7.57306833805059e-06, No Iterations 3
GAMG:  Solving for p, Initial residual = 0.000253983812653471, Final residual = 1.87808219163872e-06, No Iterations 4
GAMG:  Solving for p, Initial residual = 8.82092744819586e-05, Final residual = 6.85134660616149e-07, No Iterations 3
GAMG:  Solving for p, Initial residual = 2.53757830281527e-05, Final residual = 1.56055312608581e-07, No Iterations 5
GAMG:  Solving for p, Initial residual = 1.38999110204193e-05, Final residual = 1.18280300267041e-07, No Iterations 2
time step continuity errors : sum local = 1.81248250503654e-07, global = 1.95735293733364e-08, cumulative = 0.0029881382588474
smoothSolver:  Solving for epsilon, Initial residual = 0.000922129598659007, Final residual = 7.00344949948484e-05, No Iterations 4
smoothSolver:  Solving for k, Initial residual = 0.000762243914386012, Final residual = 5.81092537684192e-05, No Iterations 4
ExecutionTime = 729.47 s  ClockTime = 748 s

Time = 1991

smoothSolver:  Solving for Ux, Initial residual = 0.000136359916393732, Final residual = 4.98855950419687e-06, No Iterations 1
smoothSolver:  Solving for Uy, Initial residual = 0.000142632321606382, Final residual = 5.28467630182344e-06, No Iterations 1
smoothSolver:  Solving for Uz, Initial residual = 0.000175891887365146, Final residual = 6.15204604811754e-06, No Iterations 1
GAMG:  Solving for p, Initial residual = 0.00536006417767337, Final residual = 4.35037883812956e-05, No Iterations 2
GAMG:  Solving for p, Initial residual = 0.000935131924109597, Final residual = 7.15159583032638e-06, No Iterations 3
GAMG:  Solving for p, Initial residual = 0.000231011376109936, Final residual = 1.41185470380464e-06, No Iterations 4
GAMG:  Solving for p, Initial residual = 7.40421380936407e-05, Final residual = 5.56287227657679e-07, No Iterations 3
GAMG:  Solving for p, Initial residual = 2.18049777015902e-05, Final residual = 1.13041902932814e-07, No Iterations 5
GAMG:  Solving for p, Initial residual = 1.05760664727761e-05, Final residual = 9.44003951039656e-08, No Iterations 2
time step continuity errors : sum local = 1.44592845139972e-07, global = 1.35673441579412e-08, cumulative = 0.00298815182619156
smoothSolver:  Solving for epsilon, Initial residual = 0.000922855594654789, Final residual = 6.98673839227327e-05, No Iterations 4
smoothSolver:  Solving for k, Initial residual = 0.000758657952802091, Final residual = 5.77520081788605e-05, No Iterations 4
ExecutionTime = 729.84 s  ClockTime = 749 s

Time = 1992

smoothSolver:  Solving for Ux, Initial residual = 0.00013629750966628, Final residual = 4.98377280932804e-06, No Iterations 1
smoothSolver:  Solving for Uy, Initial residual = 0.000142834111917472, Final residual = 5.30667552183131e-06, No Iterations 1
smoothSolver:  Solving for Uz, Initial residual = 0.000174006840085812, Final residual = 6.0709858436766e-06, No Iterations 1
GAMG:  Solving for p, Initial residual = 0.00526335499975738, Final residual = 4.28965108074244e-05, No Iterations 2
GAMG:  Solving for p, Initial residual = 0.000894600653965795, Final residual = 7.32252324935173e-06, No Iterations 3
GAMG:  Solving for p, Initial residual = 0.000223635710970689, Final residual = 1.53359922982849e-06, No Iterations 4
GAMG:  Solving for p, Initial residual = 7.76765858700348e-05, Final residual = 5.54376742597851e-07, No Iterations 3
GAMG:  Solving for p, Initial residual = 2.23259094118568e-05, Final residual = 1.13424292402572e-07, No Iterations 5
GAMG:  Solving for p, Initial residual = 1.08085192988043e-05, Final residual = 9.92415265419578e-08, No Iterations 2
time step continuity errors : sum local = 1.51886544713527e-07, global = 4.5554034312169e-09, cumulative = 0.00298815638159499
smoothSolver:  Solving for epsilon, Initial residual = 0.00091647829168544, Final residual = 6.96765312136319e-05, No Iterations 4
smoothSolver:  Solving for k, Initial residual = 0.0007535698720579, Final residual = 5.76279237056698e-05, No Iterations 4
ExecutionTime = 730.19 s  ClockTime = 749 s

Time = 1993

smoothSolver:  Solving for Ux, Initial residual = 0.000136234507473265, Final residual = 4.98213075958586e-06, No Iterations 1
smoothSolver:  Solving for Uy, Initial residual = 0.000142809850264818, Final residual = 5.30001083632435e-06, No Iterations 1
smoothSolver:  Solving for Uz, Initial residual = 0.000175326535739247, Final residual = 6.13149751129941e-06, No Iterations 1
GAMG:  Solving for p, Initial residual = 0.00527697557285857, Final residual = 4.22617371278011e-05, No Iterations 2
GAMG:  Solving for p, Initial residual = 0.000902511461310927, Final residual = 5.99329295007361e-06, No Iterations 4
GAMG:  Solving for p, Initial residual = 0.000274291355000526, Final residual = 2.6992781889537e-06, No Iterations 3
GAMG:  Solving for p, Initial residual = 7.62590386113895e-05, Final residual = 7.6026709965772e-07, No Iterations 4
GAMG:  Solving for p, Initial residual = 3.25639563957794e-05, Final residual = 3.08018958752262e-07, No Iterations 2
GAMG:  Solving for p, Initial residual = 9.04483991214483e-06, Final residual = 5.31365537913419e-08, No Iterations 5
time step continuity errors : sum local = 8.1273008756078e-08, global = -1.47762799754012e-09, cumulative = 0.00298815490396699
smoothSolver:  Solving for epsilon, Initial residual = 0.000924862096567203, Final residual = 7.01124364128225e-05, No Iterations 4
smoothSolver:  Solving for k, Initial residual = 0.00076494833874686, Final residual = 5.81673009142084e-05, No Iterations 4
ExecutionTime = 730.56 s  ClockTime = 749 s

Time = 1994

smoothSolver:  Solving for Ux, Initial residual = 0.000136162066504509, Final residual = 4.97865115581242e-06, No Iterations 1
smoothSolver:  Solving for Uy, Initial residual = 0.000142527213226204, Final residual = 5.29072702506332e-06, No Iterations 1
smoothSolver:  Solving for Uz, Initial residual = 0.000174994507987289, Final residual = 6.05871050316414e-06, No Iterations 1
GAMG:  Solving for p, Initial residual = 0.00526293039616214, Final residual = 4.37139140162016e-05, No Iterations 2
GAMG:  Solving for p, Initial residual = 0.000949166213533989, Final residual = 6.57727477129411e-06, No Iterations 4
GAMG:  Solving for p, Initial residual = 0.000307983236312843, Final residual = 2.87315921811046e-06, No Iterations 2
GAMG:  Solving for p, Initial residual = 7.52989716416409e-05, Final residual = 5.45588605421058e-07, No Iterations 5
GAMG:  Solving for p, Initial residual = 5.53404909005899e-05, Final residual = 4.08593678691281e-07, No Iterations 2
GAMG:  Solving for p, Initial residual = 1.38525631857048e-05, Final residual = 1.24351884751861e-07, No Iterations 4
time step continuity errors : sum local = 1.90071386461889e-07, global = -5.53234833694896e-09, cumulative = 0.00298814937161865
smoothSolver:  Solving for epsilon, Initial residual = 0.000933845793664268, Final residual = 7.04211324894398e-05, No Iterations 4
smoothSolver:  Solving for k, Initial residual = 0.000774158330712043, Final residual = 5.83781010346868e-05, No Iterations 4
ExecutionTime = 730.92 s  ClockTime = 750 s

Time = 1995

smoothSolver:  Solving for Ux, Initial residual = 0.000135995376757404, Final residual = 4.98403038412098e-06, No Iterations 1
smoothSolver:  Solving for Uy, Initial residual = 0.000142144022147335, Final residual = 5.30188607021478e-06, No Iterations 1
smoothSolver:  Solving for Uz, Initial residual = 0.000173888761728003, Final residual = 6.04982029375682e-06, No Iterations 1
GAMG:  Solving for p, Initial residual = 0.00531210655932489, Final residual = 4.3487469294703e-05, No Iterations 2
GAMG:  Solving for p, Initial residual = 0.000970164653660551, Final residual = 6.58272845926856e-06, No Iterations 4
GAMG:  Solving for p, Initial residual = 0.000308570124293352, Final residual = 2.96423893374033e-06, No Iterations 2
GAMG:  Solving for p, Initial residual = 7.6749759745925e-05, Final residual = 6.0291123115182e-07, No Iterations 5
GAMG:  Solving for p, Initial residual = 6.03604730660121e-05, Final residual = 4.36882457473065e-07, No Iterations 2
GAMG:  Solving for p, Initial residual = 1.4943373670028e-05, Final residual = 1.3224290983155e-07, No Iterations 4
time step continuity errors : sum local = 2.02022029196204e-07, global = -5.8239794445864e-09, cumulative = 0.00298814354763921
smoothSolver:  Solving for epsilon, Initial residual = 0.00092039338932013, Final residual = 6.97359959388199e-05, No Iterations 4
smoothSolver:  Solving for k, Initial residual = 0.0007610810864257, Final residual = 5.77374915424457e-05, No Iterations 4
ExecutionTime = 731.28 s  ClockTime = 750 s

Time = 1996

smoothSolver:  Solving for Ux, Initial residual = 0.000136026119759709, Final residual = 4.98409301437696e-06, No Iterations 1
smoothSolver:  Solving for Uy, Initial residual = 0.000141839913706412, Final residual = 5.29435065044649e-06, No Iterations 1
smoothSolver:  Solving for Uz, Initial residual = 0.000171774028043212, Final residual = 6.01556935518879e-06, No Iterations 1
GAMG:  Solving for p, Initial residual = 0.00526595594865014, Final residual = 4.23037164716859e-05, No Iterations 2
GAMG:  Solving for p, Initial residual = 0.000925402248217396, Final residual = 8.70292509841255e-06, No Iterations 3
GAMG:  Solving for p, Initial residual = 0.000248543240698814, Final residual = 2.40371538827997e-06, No Iterations 4
GAMG:  Solving for p, Initial residual = 9.90021829131068e-05, Final residual = 8.8761681883662e-07, No Iterations 3
GAMG:  Solving for p, Initial residual = 2.82623145370925e-05, Final residual = 1.51743479946402e-07, No Iterations 5
GAMG:  Solving for p, Initial residual = 1.42433981876278e-05, Final residual = 1.2145387985014e-07, No Iterations 2
time step continuity errors : sum local = 1.85503180702894e-07, global = -1.2193154493781e-08, cumulative = 0.00298813135448472
smoothSolver:  Solving for epsilon, Initial residual = 0.000933306845090331, Final residual = 7.00962573881254e-05, No Iterations 4
smoothSolver:  Solving for k, Initial residual = 0.000773451735202539, Final residual = 5.79553404470066e-05, No Iterations 4
ExecutionTime = 731.63 s  ClockTime = 750 s

Time = 1997

smoothSolver:  Solving for Ux, Initial residual = 0.000135972381758029, Final residual = 4.98248546273791e-06, No Iterations 1
smoothSolver:  Solving for Uy, Initial residual = 0.000141646587911963, Final residual = 5.28003747806034e-06, No Iterations 1
smoothSolver:  Solving for Uz, Initial residual = 0.000170959975450498, Final residual = 5.97455421429725e-06, No Iterations 1
GAMG:  Solving for p, Initial residual = 0.00528388262768288, Final residual = 4.3687168182765e-05, No Iterations 2
GAMG:  Solving for p, Initial residual = 0.00093497844723578, Final residual = 7.57433637026905e-06, No Iterations 3
GAMG:  Solving for p, Initial residual = 0.00023292219345178, Final residual = 1.75578365094372e-06, No Iterations 4
GAMG:  Solving for p, Initial residual = 8.1560456884953e-05, Final residual = 7.53810284600464e-07, No Iterations 3
GAMG:  Solving for p, Initial residual = 2.41691001510442e-05, Final residual = 1.36970541542946e-07, No Iterations 5
GAMG:  Solving for p, Initial residual = 1.19946526824454e-05, Final residual = 1.01452510824602e-07, No Iterations 2
time step continuity errors : sum local = 1.54926283321592e-07, global = -2.27279632345791e-09, cumulative = 0.00298812908168839
smoothSolver:  Solving for epsilon, Initial residual = 0.000945320748812896, Final residual = 7.07069439496348e-05, No Iterations 4
smoothSolver:  Solving for k, Initial residual = 0.000783035148092861, Final residual = 5.85763700056734e-05, No Iterations 4
ExecutionTime = 731.98 s  ClockTime = 751 s

Time = 1998

smoothSolver:  Solving for Ux, Initial residual = 0.000136054627817934, Final residual = 4.9826953698958e-06, No Iterations 1
smoothSolver:  Solving for Uy, Initial residual = 0.000141952106789054, Final residual = 5.27541389330945e-06, No Iterations 1
smoothSolver:  Solving for Uz, Initial residual = 0.000171499760731478, Final residual = 6.0083204821142e-06, No Iterations 1
GAMG:  Solving for p, Initial residual = 0.00537785439662276, Final residual = 4.45648729410616e-05, No Iterations 2
GAMG:  Solving for p, Initial residual = 0.000950783896348376, Final residual = 7.33333921905014e-06, No Iterations 3
GAMG:  Solving for p, Initial residual = 0.000234671445118763, Final residual = 1.5272530221268e-06, No Iterations 4
GAMG:  Solving for p, Initial residual = 7.59357199119687e-05, Final residual = 6.08253965818169e-07, No Iterations 3
GAMG:  Solving for p, Initial residual = 2.21585463551115e-05, Final residual = 1.07586050601801e-07, No Iterations 5
GAMG:  Solving for p, Initial residual = 1.07551159424139e-05, Final residual = 8.83215272637791e-08, No Iterations 2
time step continuity errors : sum local = 1.34871446474091e-07, global = 1.1139798345979e-08, cumulative = 0.00298814022148674
smoothSolver:  Solving for epsilon, Initial residual = 0.000938668568914983, Final residual = 7.02379510464121e-05, No Iterations 4
smoothSolver:  Solving for k, Initial residual = 0.000779177213996011, Final residual = 5.81657396312403e-05, No Iterations 4
ExecutionTime = 732.34 s  ClockTime = 751 s

Time = 1999

smoothSolver:  Solving for Ux, Initial residual = 0.000136295243237041, Final residual = 4.98892335608755e-06, No Iterations 1
smoothSolver:  Solving for Uy, Initial residual = 0.000142109550319924, Final residual = 5.27760052099925e-06, No Iterations 1
smoothSolver:  Solving for Uz, Initial residual = 0.000175737121106949, Final residual = 6.09662891641347e-06, No Iterations 1
GAMG:  Solving for p, Initial residual = 0.00547572426523166, Final residual = 4.31478236759805e-05, No Iterations 2
GAMG:  Solving for p, Initial residual = 0.000941365037936008, Final residual = 6.76466888026457e-06, No Iterations 3
GAMG:  Solving for p, Initial residual = 0.000231280447931114, Final residual = 2.27554478338223e-06, No Iterations 3
GAMG:  Solving for p, Initial residual = 6.79672596303861e-05, Final residual = 5.46746051607041e-07, No Iterations 4
GAMG:  Solving for p, Initial residual = 2.78422601292721e-05, Final residual = 2.7035280312402e-07, No Iterations 2
GAMG:  Solving for p, Initial residual = 7.68784356599863e-06, Final residual = 4.27117890529483e-08, No Iterations 5
time step continuity errors : sum local = 6.52233541296815e-08, global = 1.63598595204992e-09, cumulative = 0.00298814185747269
smoothSolver:  Solving for epsilon, Initial residual = 0.000932977354918091, Final residual = 7.02373813215223e-05, No Iterations 4
smoothSolver:  Solving for k, Initial residual = 0.000771926385930218, Final residual = 5.80052957967326e-05, No Iterations 4
ExecutionTime = 732.67 s  ClockTime = 752 s

Time = 2000

smoothSolver:  Solving for Ux, Initial residual = 0.000136346281286529, Final residual = 4.9826035858867e-06, No Iterations 1
smoothSolver:  Solving for Uy, Initial residual = 0.000142285159942736, Final residual = 5.28989334563866e-06, No Iterations 1
smoothSolver:  Solving for Uz, Initial residual = 0.000175980356097722, Final residual = 6.08252434786239e-06, No Iterations 1
GAMG:  Solving for p, Initial residual = 0.00541978383170224, Final residual = 4.12121814618374e-05, No Iterations 2
GAMG:  Solving for p, Initial residual = 0.000943364169991174, Final residual = 6.60527423498704e-06, No Iterations 3
GAMG:  Solving for p, Initial residual = 0.000230355762401306, Final residual = 2.14458009801389e-06, No Iterations 3
GAMG:  Solving for p, Initial residual = 6.78489274674926e-05, Final residual = 5.60848869032985e-07, No Iterations 4
GAMG:  Solving for p, Initial residual = 2.80626582964651e-05, Final residual = 2.57210819339625e-07, No Iterations 2
GAMG:  Solving for p, Initial residual = 7.76178242221649e-06, Final residual = 4.81849014456253e-08, No Iterations 5
time step continuity errors : sum local = 7.35793339091765e-08, global = 1.52713909469787e-09, cumulative = 0.00298814338461179
smoothSolver:  Solving for epsilon, Initial residual = 0.000917662225805026, Final residual = 6.97569948166541e-05, No Iterations 4
smoothSolver:  Solving for k, Initial residual = 0.000755242653812215, Final residual = 5.75101554733607e-05, No Iterations 4
ExecutionTime = 733.28 s  ClockTime = 753 s

End

Finalising parallel run
